<?xml version="1.0" encoding="iso-8859-1"?>

<!-- generated on Sun Dec 27 21:54:03 2015 by SUMO netgen Version 0.13.1
<?xml version="1.0" encoding="iso-8859-1"?>

<configuration xmlns:xsi="http://www.w3.org/2001/XMLSchema-instance" xsi:noNamespaceSchemaLocation="http://sumo.sf.net/xsd/netgenConfiguration.xsd">

    <grid_network>
        <grid value="true"/>
        <grid.length value="1000"/>
        <grid.x-number value="11"/>
        <grid.y-number value="7"/>
    </grid_network>

    <output>
        <output-file value="comunity.net.xml"/>
    </output>

</configuration>
-->

<net version="0.13" xmlns:xsi="http://www.w3.org/2001/XMLSchema-instance" xsi:noNamespaceSchemaLocation="http://sumo.sf.net/xsd/net_file.xsd">

    <location netOffset="0.00,0.00" convBoundary="0.00,0.00,10000.00,6000.00" origBoundary="0.00,0.00,10000.00,6000.00" projParameter="!"/>

    <edge id=":0/0_0" function="internal">
        <lane id=":0/0_0_0" index="0" speed="13.90" length="7.90" shape="-1.65,3.25 -1.34,1.11 -0.43,-0.42 1.11,-1.34 3.25,-1.65"/>
    </edge>
    <edge id=":0/0_1" function="internal">
        <lane id=":0/0_1_0" index="0" speed="13.90" length="2.41" shape="-1.65,3.25 -0.83,2.01 -0.00,1.60"/>
    </edge>
    <edge id=":0/0_4" function="internal">
        <lane id=":0/0_4_0" index="0" speed="13.90" length="2.41" shape="-0.00,1.60 0.82,2.01 1.65,3.25"/>
    </edge>
    <edge id=":0/0_2" function="internal">
        <lane id=":0/0_2_0" index="0" speed="13.90" length="2.58" shape="3.25,1.65 2.55,1.75 2.05,2.05 1.75,2.55 1.65,3.25"/>
    </edge>
    <edge id=":0/0_3" function="internal">
        <lane id=":0/0_3_0" index="0" speed="13.90" length="2.41" shape="3.25,1.65 2.01,0.82 1.60,-0.00"/>
    </edge>
    <edge id=":0/0_5" function="internal">
        <lane id=":0/0_5_0" index="0" speed="13.90" length="2.41" shape="1.60,-0.00 2.01,-0.83 3.25,-1.65"/>
    </edge>
    <edge id=":0/1_0" function="internal">
        <lane id=":0/1_0_0" index="0" speed="13.90" length="9.50" shape="-1.65,1004.75 -1.65,995.25"/>
    </edge>
    <edge id=":0/1_1" function="internal">
        <lane id=":0/1_1_0" index="0" speed="13.90" length="7.14" shape="-1.65,1004.75 -1.25,1001.95 -0.05,999.95 1.65,998.93"/>
    </edge>
    <edge id=":0/1_9" function="internal">
        <lane id=":0/1_9_0" index="0" speed="13.90" length="3.18" shape="1.65,998.93 1.95,998.75 4.75,998.35"/>
    </edge>
    <edge id=":0/1_2" function="internal">
        <lane id=":0/1_2_0" index="0" speed="13.90" length="2.41" shape="-1.65,1004.75 -0.83,1003.51 -0.00,1003.10"/>
    </edge>
    <edge id=":0/1_10" function="internal">
        <lane id=":0/1_10_0" index="0" speed="13.90" length="2.41" shape="-0.00,1003.10 0.82,1003.51 1.65,1004.75"/>
    </edge>
    <edge id=":0/1_3" function="internal">
        <lane id=":0/1_3_0" index="0" speed="13.90" length="5.00" shape="4.75,1001.65 3.39,1001.84 2.43,1002.42 1.84,1003.39 1.65,1004.75"/>
    </edge>
    <edge id=":0/1_4" function="internal">
        <lane id=":0/1_4_0" index="0" speed="13.90" length="10.32" shape="4.75,1001.65 1.95,1001.25 -0.05,1000.05 -1.25,998.05 -1.65,995.25"/>
    </edge>
    <edge id=":0/1_5" function="internal">
        <lane id=":0/1_5_0" index="0" speed="13.90" length="4.82" shape="4.75,1001.65 3.51,1000.83 3.10,1000.00 3.51,999.18 4.75,998.35"/>
    </edge>
    <edge id=":0/1_6" function="internal">
        <lane id=":0/1_6_0" index="0" speed="13.90" length="5.00" shape="1.65,995.25 1.84,996.61 2.43,997.57 3.39,998.16 4.75,998.35"/>
    </edge>
    <edge id=":0/1_7" function="internal">
        <lane id=":0/1_7_0" index="0" speed="13.90" length="9.50" shape="1.65,995.25 1.65,1004.75"/>
    </edge>
    <edge id=":0/1_8" function="internal">
        <lane id=":0/1_8_0" index="0" speed="13.90" length="2.41" shape="1.65,995.25 0.83,996.49 0.00,996.90"/>
    </edge>
    <edge id=":0/1_11" function="internal">
        <lane id=":0/1_11_0" index="0" speed="13.90" length="2.41" shape="0.00,996.90 -0.82,996.49 -1.65,995.25"/>
    </edge>
    <edge id=":0/2_0" function="internal">
        <lane id=":0/2_0_0" index="0" speed="13.90" length="9.50" shape="-1.65,2004.75 -1.65,1995.25"/>
    </edge>
    <edge id=":0/2_1" function="internal">
        <lane id=":0/2_1_0" index="0" speed="13.90" length="7.14" shape="-1.65,2004.75 -1.25,2001.95 -0.05,1999.95 1.65,1998.93"/>
    </edge>
    <edge id=":0/2_9" function="internal">
        <lane id=":0/2_9_0" index="0" speed="13.90" length="3.18" shape="1.65,1998.93 1.95,1998.75 4.75,1998.35"/>
    </edge>
    <edge id=":0/2_2" function="internal">
        <lane id=":0/2_2_0" index="0" speed="13.90" length="2.41" shape="-1.65,2004.75 -0.83,2003.51 -0.00,2003.10"/>
    </edge>
    <edge id=":0/2_10" function="internal">
        <lane id=":0/2_10_0" index="0" speed="13.90" length="2.41" shape="-0.00,2003.10 0.82,2003.51 1.65,2004.75"/>
    </edge>
    <edge id=":0/2_3" function="internal">
        <lane id=":0/2_3_0" index="0" speed="13.90" length="5.00" shape="4.75,2001.65 3.39,2001.84 2.43,2002.43 1.84,2003.39 1.65,2004.75"/>
    </edge>
    <edge id=":0/2_4" function="internal">
        <lane id=":0/2_4_0" index="0" speed="13.90" length="10.32" shape="4.75,2001.65 1.95,2001.25 -0.05,2000.05 -1.25,1998.05 -1.65,1995.25"/>
    </edge>
    <edge id=":0/2_5" function="internal">
        <lane id=":0/2_5_0" index="0" speed="13.90" length="4.82" shape="4.75,2001.65 3.51,2000.83 3.10,2000.00 3.51,1999.18 4.75,1998.35"/>
    </edge>
    <edge id=":0/2_6" function="internal">
        <lane id=":0/2_6_0" index="0" speed="13.90" length="5.00" shape="1.65,1995.25 1.84,1996.61 2.43,1997.57 3.39,1998.16 4.75,1998.35"/>
    </edge>
    <edge id=":0/2_7" function="internal">
        <lane id=":0/2_7_0" index="0" speed="13.90" length="9.50" shape="1.65,1995.25 1.65,2004.75"/>
    </edge>
    <edge id=":0/2_8" function="internal">
        <lane id=":0/2_8_0" index="0" speed="13.90" length="2.41" shape="1.65,1995.25 0.83,1996.49 0.00,1996.90"/>
    </edge>
    <edge id=":0/2_11" function="internal">
        <lane id=":0/2_11_0" index="0" speed="13.90" length="2.41" shape="0.00,1996.90 -0.82,1996.49 -1.65,1995.25"/>
    </edge>
    <edge id=":0/3_0" function="internal">
        <lane id=":0/3_0_0" index="0" speed="13.90" length="9.50" shape="-1.65,3004.75 -1.65,2995.25"/>
    </edge>
    <edge id=":0/3_1" function="internal">
        <lane id=":0/3_1_0" index="0" speed="13.90" length="7.14" shape="-1.65,3004.75 -1.25,3001.95 -0.05,2999.95 1.65,2998.93"/>
    </edge>
    <edge id=":0/3_9" function="internal">
        <lane id=":0/3_9_0" index="0" speed="13.90" length="3.18" shape="1.65,2998.93 1.95,2998.75 4.75,2998.35"/>
    </edge>
    <edge id=":0/3_2" function="internal">
        <lane id=":0/3_2_0" index="0" speed="13.90" length="2.41" shape="-1.65,3004.75 -0.83,3003.51 -0.00,3003.10"/>
    </edge>
    <edge id=":0/3_10" function="internal">
        <lane id=":0/3_10_0" index="0" speed="13.90" length="2.41" shape="-0.00,3003.10 0.82,3003.51 1.65,3004.75"/>
    </edge>
    <edge id=":0/3_3" function="internal">
        <lane id=":0/3_3_0" index="0" speed="13.90" length="5.00" shape="4.75,3001.65 3.39,3001.84 2.43,3002.43 1.84,3003.39 1.65,3004.75"/>
    </edge>
    <edge id=":0/3_4" function="internal">
        <lane id=":0/3_4_0" index="0" speed="13.90" length="10.32" shape="4.75,3001.65 1.95,3001.25 -0.05,3000.05 -1.25,2998.05 -1.65,2995.25"/>
    </edge>
    <edge id=":0/3_5" function="internal">
        <lane id=":0/3_5_0" index="0" speed="13.90" length="4.82" shape="4.75,3001.65 3.51,3000.83 3.10,3000.00 3.51,2999.18 4.75,2998.35"/>
    </edge>
    <edge id=":0/3_6" function="internal">
        <lane id=":0/3_6_0" index="0" speed="13.90" length="5.00" shape="1.65,2995.25 1.84,2996.61 2.43,2997.58 3.39,2998.16 4.75,2998.35"/>
    </edge>
    <edge id=":0/3_7" function="internal">
        <lane id=":0/3_7_0" index="0" speed="13.90" length="9.50" shape="1.65,2995.25 1.65,3004.75"/>
    </edge>
    <edge id=":0/3_8" function="internal">
        <lane id=":0/3_8_0" index="0" speed="13.90" length="2.41" shape="1.65,2995.25 0.83,2996.49 0.00,2996.90"/>
    </edge>
    <edge id=":0/3_11" function="internal">
        <lane id=":0/3_11_0" index="0" speed="13.90" length="2.41" shape="0.00,2996.90 -0.82,2996.49 -1.65,2995.25"/>
    </edge>
    <edge id=":0/4_0" function="internal">
        <lane id=":0/4_0_0" index="0" speed="13.90" length="9.50" shape="-1.65,4004.75 -1.65,3995.25"/>
    </edge>
    <edge id=":0/4_1" function="internal">
        <lane id=":0/4_1_0" index="0" speed="13.90" length="7.14" shape="-1.65,4004.75 -1.25,4001.95 -0.05,3999.95 1.65,3998.93"/>
    </edge>
    <edge id=":0/4_9" function="internal">
        <lane id=":0/4_9_0" index="0" speed="13.90" length="3.18" shape="1.65,3998.93 1.95,3998.75 4.75,3998.35"/>
    </edge>
    <edge id=":0/4_2" function="internal">
        <lane id=":0/4_2_0" index="0" speed="13.90" length="2.41" shape="-1.65,4004.75 -0.83,4003.51 -0.00,4003.10"/>
    </edge>
    <edge id=":0/4_10" function="internal">
        <lane id=":0/4_10_0" index="0" speed="13.90" length="2.41" shape="-0.00,4003.10 0.82,4003.51 1.65,4004.75"/>
    </edge>
    <edge id=":0/4_3" function="internal">
        <lane id=":0/4_3_0" index="0" speed="13.90" length="5.00" shape="4.75,4001.65 3.39,4001.84 2.43,4002.43 1.84,4003.39 1.65,4004.75"/>
    </edge>
    <edge id=":0/4_4" function="internal">
        <lane id=":0/4_4_0" index="0" speed="13.90" length="10.32" shape="4.75,4001.65 1.95,4001.25 -0.05,4000.05 -1.25,3998.05 -1.65,3995.25"/>
    </edge>
    <edge id=":0/4_5" function="internal">
        <lane id=":0/4_5_0" index="0" speed="13.90" length="4.82" shape="4.75,4001.65 3.51,4000.83 3.10,4000.00 3.51,3999.18 4.75,3998.35"/>
    </edge>
    <edge id=":0/4_6" function="internal">
        <lane id=":0/4_6_0" index="0" speed="13.90" length="5.00" shape="1.65,3995.25 1.84,3996.61 2.43,3997.58 3.39,3998.16 4.75,3998.35"/>
    </edge>
    <edge id=":0/4_7" function="internal">
        <lane id=":0/4_7_0" index="0" speed="13.90" length="9.50" shape="1.65,3995.25 1.65,4004.75"/>
    </edge>
    <edge id=":0/4_8" function="internal">
        <lane id=":0/4_8_0" index="0" speed="13.90" length="2.41" shape="1.65,3995.25 0.83,3996.49 0.00,3996.90"/>
    </edge>
    <edge id=":0/4_11" function="internal">
        <lane id=":0/4_11_0" index="0" speed="13.90" length="2.41" shape="0.00,3996.90 -0.82,3996.49 -1.65,3995.25"/>
    </edge>
    <edge id=":0/5_0" function="internal">
        <lane id=":0/5_0_0" index="0" speed="13.90" length="9.50" shape="-1.65,5004.75 -1.65,4995.25"/>
    </edge>
    <edge id=":0/5_1" function="internal">
        <lane id=":0/5_1_0" index="0" speed="13.90" length="7.14" shape="-1.65,5004.75 -1.25,5001.95 -0.05,4999.95 1.65,4998.93"/>
    </edge>
    <edge id=":0/5_9" function="internal">
        <lane id=":0/5_9_0" index="0" speed="13.90" length="3.18" shape="1.65,4998.93 1.95,4998.75 4.75,4998.35"/>
    </edge>
    <edge id=":0/5_2" function="internal">
        <lane id=":0/5_2_0" index="0" speed="13.90" length="2.41" shape="-1.65,5004.75 -0.83,5003.51 -0.00,5003.10"/>
    </edge>
    <edge id=":0/5_10" function="internal">
        <lane id=":0/5_10_0" index="0" speed="13.90" length="2.41" shape="-0.00,5003.10 0.82,5003.51 1.65,5004.75"/>
    </edge>
    <edge id=":0/5_3" function="internal">
        <lane id=":0/5_3_0" index="0" speed="13.90" length="5.00" shape="4.75,5001.65 3.39,5001.84 2.43,5002.42 1.84,5003.39 1.65,5004.75"/>
    </edge>
    <edge id=":0/5_4" function="internal">
        <lane id=":0/5_4_0" index="0" speed="13.90" length="10.32" shape="4.75,5001.65 1.95,5001.25 -0.05,5000.05 -1.25,4998.05 -1.65,4995.25"/>
    </edge>
    <edge id=":0/5_5" function="internal">
        <lane id=":0/5_5_0" index="0" speed="13.90" length="4.82" shape="4.75,5001.65 3.51,5000.83 3.10,5000.00 3.51,4999.18 4.75,4998.35"/>
    </edge>
    <edge id=":0/5_6" function="internal">
        <lane id=":0/5_6_0" index="0" speed="13.90" length="5.00" shape="1.65,4995.25 1.84,4996.61 2.43,4997.58 3.39,4998.16 4.75,4998.35"/>
    </edge>
    <edge id=":0/5_7" function="internal">
        <lane id=":0/5_7_0" index="0" speed="13.90" length="9.50" shape="1.65,4995.25 1.65,5004.75"/>
    </edge>
    <edge id=":0/5_8" function="internal">
        <lane id=":0/5_8_0" index="0" speed="13.90" length="2.41" shape="1.65,4995.25 0.83,4996.49 0.00,4996.90"/>
    </edge>
    <edge id=":0/5_11" function="internal">
        <lane id=":0/5_11_0" index="0" speed="13.90" length="2.41" shape="0.00,4996.90 -0.82,4996.49 -1.65,4995.25"/>
    </edge>
    <edge id=":0/6_0" function="internal">
        <lane id=":0/6_0_0" index="0" speed="13.90" length="7.90" shape="3.25,6001.65 1.11,6001.34 -0.43,6000.42 -1.34,5998.89 -1.65,5996.75"/>
    </edge>
    <edge id=":0/6_1" function="internal">
        <lane id=":0/6_1_0" index="0" speed="13.90" length="2.41" shape="3.25,6001.65 2.01,6000.83 1.60,6000.00"/>
    </edge>
    <edge id=":0/6_4" function="internal">
        <lane id=":0/6_4_0" index="0" speed="13.90" length="2.41" shape="1.60,6000.00 2.01,5999.18 3.25,5998.35"/>
    </edge>
    <edge id=":0/6_2" function="internal">
        <lane id=":0/6_2_0" index="0" speed="13.90" length="2.58" shape="1.65,5996.75 1.75,5997.45 2.05,5997.95 2.55,5998.25 3.25,5998.35"/>
    </edge>
    <edge id=":0/6_3" function="internal">
        <lane id=":0/6_3_0" index="0" speed="13.90" length="2.41" shape="1.65,5996.75 0.83,5997.99 0.00,5998.40"/>
    </edge>
    <edge id=":0/6_5" function="internal">
        <lane id=":0/6_5_0" index="0" speed="13.90" length="2.41" shape="0.00,5998.40 -0.82,5997.99 -1.65,5996.75"/>
    </edge>
    <edge id=":1/0_0" function="internal">
        <lane id=":1/0_0_0" index="0" speed="13.90" length="5.00" shape="998.35,4.75 998.16,3.39 997.57,2.43 996.61,1.84 995.25,1.65"/>
    </edge>
    <edge id=":1/0_1" function="internal">
        <lane id=":1/0_1_0" index="0" speed="13.90" length="10.32" shape="998.35,4.75 998.75,1.95 999.95,-0.05 1001.95,-1.25 1004.75,-1.65"/>
    </edge>
    <edge id=":1/0_2" function="internal">
        <lane id=":1/0_2_0" index="0" speed="13.90" length="4.82" shape="998.35,4.75 999.17,3.51 1000.00,3.10 1000.83,3.51 1001.65,4.75"/>
    </edge>
    <edge id=":1/0_3" function="internal">
        <lane id=":1/0_3_0" index="0" speed="13.90" length="5.00" shape="1004.75,1.65 1003.39,1.84 1002.43,2.42 1001.84,3.39 1001.65,4.75"/>
    </edge>
    <edge id=":1/0_4" function="internal">
        <lane id=":1/0_4_0" index="0" speed="13.90" length="9.50" shape="1004.75,1.65 995.25,1.65"/>
    </edge>
    <edge id=":1/0_5" function="internal">
        <lane id=":1/0_5_0" index="0" speed="13.90" length="2.41" shape="1004.75,1.65 1003.51,0.83 1003.10,0.00"/>
    </edge>
    <edge id=":1/0_9" function="internal">
        <lane id=":1/0_9_0" index="0" speed="13.90" length="2.41" shape="1003.10,0.00 1003.51,-0.82 1004.75,-1.65"/>
    </edge>
    <edge id=":1/0_6" function="internal">
        <lane id=":1/0_6_0" index="0" speed="13.90" length="9.50" shape="995.25,-1.65 1004.75,-1.65"/>
    </edge>
    <edge id=":1/0_7" function="internal">
        <lane id=":1/0_7_0" index="0" speed="13.90" length="7.14" shape="995.25,-1.65 998.05,-1.25 1000.05,-0.05 1001.07,1.65"/>
    </edge>
    <edge id=":1/0_10" function="internal">
        <lane id=":1/0_10_0" index="0" speed="13.90" length="3.18" shape="1001.07,1.65 1001.25,1.95 1001.65,4.75"/>
    </edge>
    <edge id=":1/0_8" function="internal">
        <lane id=":1/0_8_0" index="0" speed="13.90" length="2.41" shape="995.25,-1.65 996.49,-0.83 996.90,-0.00"/>
    </edge>
    <edge id=":1/0_11" function="internal">
        <lane id=":1/0_11_0" index="0" speed="13.90" length="2.41" shape="996.90,-0.00 996.49,0.82 995.25,1.65"/>
    </edge>
    <edge id=":1/1_0" function="internal">
        <lane id=":1/1_0_0" index="0" speed="13.90" length="5.00" shape="998.35,1004.75 998.16,1003.39 997.57,1002.43 996.61,1001.84 995.25,1001.65"/>
    </edge>
    <edge id=":1/1_1" function="internal">
        <lane id=":1/1_1_0" index="0" speed="13.90" length="9.50" shape="998.35,1004.75 998.35,995.25"/>
    </edge>
    <edge id=":1/1_2" function="internal">
        <lane id=":1/1_2_0" index="0" speed="13.90" length="7.14" shape="998.35,1004.75 998.75,1001.95 999.95,999.95 1001.65,998.93"/>
    </edge>
    <edge id=":1/1_16" function="internal">
        <lane id=":1/1_16_0" index="0" speed="13.90" length="3.18" shape="1001.65,998.93 1001.95,998.75 1004.75,998.35"/>
    </edge>
    <edge id=":1/1_3" function="internal">
        <lane id=":1/1_3_0" index="0" speed="13.90" length="2.41" shape="998.35,1004.75 999.17,1003.51 1000.00,1003.10"/>
    </edge>
    <edge id=":1/1_17" function="internal">
        <lane id=":1/1_17_0" index="0" speed="13.90" length="2.41" shape="1000.00,1003.10 1000.83,1003.51 1001.65,1004.75"/>
    </edge>
    <edge id=":1/1_4" function="internal">
        <lane id=":1/1_4_0" index="0" speed="13.90" length="5.00" shape="1004.75,1001.65 1003.39,1001.84 1002.43,1002.42 1001.84,1003.39 1001.65,1004.75"/>
    </edge>
    <edge id=":1/1_5" function="internal">
        <lane id=":1/1_5_0" index="0" speed="13.90" length="9.50" shape="1004.75,1001.65 995.25,1001.65"/>
    </edge>
    <edge id=":1/1_6" function="internal">
        <lane id=":1/1_6_0" index="0" speed="13.90" length="10.32" shape="1004.75,1001.65 1001.95,1001.25 999.95,1000.05 998.75,998.05 998.35,995.25"/>
    </edge>
    <edge id=":1/1_7" function="internal">
        <lane id=":1/1_7_0" index="0" speed="13.90" length="4.82" shape="1004.75,1001.65 1003.51,1000.83 1003.10,1000.00 1003.51,999.18 1004.75,998.35"/>
    </edge>
    <edge id=":1/1_8" function="internal">
        <lane id=":1/1_8_0" index="0" speed="13.90" length="5.00" shape="1001.65,995.25 1001.84,996.61 1002.43,997.57 1003.39,998.16 1004.75,998.35"/>
    </edge>
    <edge id=":1/1_9" function="internal">
        <lane id=":1/1_9_0" index="0" speed="13.90" length="9.50" shape="1001.65,995.25 1001.65,1004.75"/>
    </edge>
    <edge id=":1/1_10" function="internal">
        <lane id=":1/1_10_0" index="0" speed="13.90" length="7.14" shape="1001.65,995.25 1001.25,998.05 1000.05,1000.05 998.35,1001.07"/>
    </edge>
    <edge id=":1/1_18" function="internal">
        <lane id=":1/1_18_0" index="0" speed="13.90" length="3.18" shape="998.35,1001.07 998.05,1001.25 995.25,1001.65"/>
    </edge>
    <edge id=":1/1_11" function="internal">
        <lane id=":1/1_11_0" index="0" speed="13.90" length="2.41" shape="1001.65,995.25 1000.83,996.49 1000.00,996.90"/>
    </edge>
    <edge id=":1/1_19" function="internal">
        <lane id=":1/1_19_0" index="0" speed="13.90" length="2.41" shape="1000.00,996.90 999.17,996.49 998.35,995.25"/>
    </edge>
    <edge id=":1/1_12" function="internal">
        <lane id=":1/1_12_0" index="0" speed="13.90" length="5.00" shape="995.25,998.35 996.61,998.16 997.57,997.58 998.16,996.61 998.35,995.25"/>
    </edge>
    <edge id=":1/1_13" function="internal">
        <lane id=":1/1_13_0" index="0" speed="13.90" length="9.50" shape="995.25,998.35 1004.75,998.35"/>
    </edge>
    <edge id=":1/1_14" function="internal">
        <lane id=":1/1_14_0" index="0" speed="13.90" length="10.32" shape="995.25,998.35 998.05,998.75 1000.05,999.95 1001.25,1001.95 1001.65,1004.75"/>
    </edge>
    <edge id=":1/1_15" function="internal">
        <lane id=":1/1_15_0" index="0" speed="13.90" length="4.82" shape="995.25,998.35 996.49,999.17 996.90,1000.00 996.49,1000.82 995.25,1001.65"/>
    </edge>
    <edge id=":1/2_0" function="internal">
        <lane id=":1/2_0_0" index="0" speed="13.90" length="5.00" shape="998.35,2004.75 998.16,2003.39 997.57,2002.43 996.61,2001.84 995.25,2001.65"/>
    </edge>
    <edge id=":1/2_1" function="internal">
        <lane id=":1/2_1_0" index="0" speed="13.90" length="9.50" shape="998.35,2004.75 998.35,1995.25"/>
    </edge>
    <edge id=":1/2_2" function="internal">
        <lane id=":1/2_2_0" index="0" speed="13.90" length="7.14" shape="998.35,2004.75 998.75,2001.95 999.95,1999.95 1001.65,1998.93"/>
    </edge>
    <edge id=":1/2_16" function="internal">
        <lane id=":1/2_16_0" index="0" speed="13.90" length="3.18" shape="1001.65,1998.93 1001.95,1998.75 1004.75,1998.35"/>
    </edge>
    <edge id=":1/2_3" function="internal">
        <lane id=":1/2_3_0" index="0" speed="13.90" length="2.41" shape="998.35,2004.75 999.17,2003.51 1000.00,2003.10"/>
    </edge>
    <edge id=":1/2_17" function="internal">
        <lane id=":1/2_17_0" index="0" speed="13.90" length="2.41" shape="1000.00,2003.10 1000.83,2003.51 1001.65,2004.75"/>
    </edge>
    <edge id=":1/2_4" function="internal">
        <lane id=":1/2_4_0" index="0" speed="13.90" length="5.00" shape="1004.75,2001.65 1003.39,2001.84 1002.43,2002.43 1001.84,2003.39 1001.65,2004.75"/>
    </edge>
    <edge id=":1/2_5" function="internal">
        <lane id=":1/2_5_0" index="0" speed="13.90" length="9.50" shape="1004.75,2001.65 995.25,2001.65"/>
    </edge>
    <edge id=":1/2_6" function="internal">
        <lane id=":1/2_6_0" index="0" speed="13.90" length="10.32" shape="1004.75,2001.65 1001.95,2001.25 999.95,2000.05 998.75,1998.05 998.35,1995.25"/>
    </edge>
    <edge id=":1/2_7" function="internal">
        <lane id=":1/2_7_0" index="0" speed="13.90" length="4.82" shape="1004.75,2001.65 1003.51,2000.83 1003.10,2000.00 1003.51,1999.18 1004.75,1998.35"/>
    </edge>
    <edge id=":1/2_8" function="internal">
        <lane id=":1/2_8_0" index="0" speed="13.90" length="5.00" shape="1001.65,1995.25 1001.84,1996.61 1002.43,1997.57 1003.39,1998.16 1004.75,1998.35"/>
    </edge>
    <edge id=":1/2_9" function="internal">
        <lane id=":1/2_9_0" index="0" speed="13.90" length="9.50" shape="1001.65,1995.25 1001.65,2004.75"/>
    </edge>
    <edge id=":1/2_10" function="internal">
        <lane id=":1/2_10_0" index="0" speed="13.90" length="7.14" shape="1001.65,1995.25 1001.25,1998.05 1000.05,2000.05 998.35,2001.07"/>
    </edge>
    <edge id=":1/2_18" function="internal">
        <lane id=":1/2_18_0" index="0" speed="13.90" length="3.18" shape="998.35,2001.07 998.05,2001.25 995.25,2001.65"/>
    </edge>
    <edge id=":1/2_11" function="internal">
        <lane id=":1/2_11_0" index="0" speed="13.90" length="2.41" shape="1001.65,1995.25 1000.83,1996.49 1000.00,1996.90"/>
    </edge>
    <edge id=":1/2_19" function="internal">
        <lane id=":1/2_19_0" index="0" speed="13.90" length="2.41" shape="1000.00,1996.90 999.17,1996.49 998.35,1995.25"/>
    </edge>
    <edge id=":1/2_12" function="internal">
        <lane id=":1/2_12_0" index="0" speed="13.90" length="5.00" shape="995.25,1998.35 996.61,1998.16 997.57,1997.57 998.16,1996.61 998.35,1995.25"/>
    </edge>
    <edge id=":1/2_13" function="internal">
        <lane id=":1/2_13_0" index="0" speed="13.90" length="9.50" shape="995.25,1998.35 1004.75,1998.35"/>
    </edge>
    <edge id=":1/2_14" function="internal">
        <lane id=":1/2_14_0" index="0" speed="13.90" length="10.32" shape="995.25,1998.35 998.05,1998.75 1000.05,1999.95 1001.25,2001.95 1001.65,2004.75"/>
    </edge>
    <edge id=":1/2_15" function="internal">
        <lane id=":1/2_15_0" index="0" speed="13.90" length="4.82" shape="995.25,1998.35 996.49,1999.17 996.90,2000.00 996.49,2000.82 995.25,2001.65"/>
    </edge>
    <edge id=":1/3_0" function="internal">
        <lane id=":1/3_0_0" index="0" speed="13.90" length="5.00" shape="998.35,3004.75 998.16,3003.39 997.57,3002.42 996.61,3001.84 995.25,3001.65"/>
    </edge>
    <edge id=":1/3_1" function="internal">
        <lane id=":1/3_1_0" index="0" speed="13.90" length="9.50" shape="998.35,3004.75 998.35,2995.25"/>
    </edge>
    <edge id=":1/3_2" function="internal">
        <lane id=":1/3_2_0" index="0" speed="13.90" length="7.14" shape="998.35,3004.75 998.75,3001.95 999.95,2999.95 1001.65,2998.93"/>
    </edge>
    <edge id=":1/3_16" function="internal">
        <lane id=":1/3_16_0" index="0" speed="13.90" length="3.18" shape="1001.65,2998.93 1001.95,2998.75 1004.75,2998.35"/>
    </edge>
    <edge id=":1/3_3" function="internal">
        <lane id=":1/3_3_0" index="0" speed="13.90" length="2.41" shape="998.35,3004.75 999.17,3003.51 1000.00,3003.10"/>
    </edge>
    <edge id=":1/3_17" function="internal">
        <lane id=":1/3_17_0" index="0" speed="13.90" length="2.41" shape="1000.00,3003.10 1000.83,3003.51 1001.65,3004.75"/>
    </edge>
    <edge id=":1/3_4" function="internal">
        <lane id=":1/3_4_0" index="0" speed="13.90" length="5.00" shape="1004.75,3001.65 1003.39,3001.84 1002.43,3002.43 1001.84,3003.39 1001.65,3004.75"/>
    </edge>
    <edge id=":1/3_5" function="internal">
        <lane id=":1/3_5_0" index="0" speed="13.90" length="9.50" shape="1004.75,3001.65 995.25,3001.65"/>
    </edge>
    <edge id=":1/3_6" function="internal">
        <lane id=":1/3_6_0" index="0" speed="13.90" length="10.32" shape="1004.75,3001.65 1001.95,3001.25 999.95,3000.05 998.75,2998.05 998.35,2995.25"/>
    </edge>
    <edge id=":1/3_7" function="internal">
        <lane id=":1/3_7_0" index="0" speed="13.90" length="4.82" shape="1004.75,3001.65 1003.51,3000.83 1003.10,3000.00 1003.51,2999.18 1004.75,2998.35"/>
    </edge>
    <edge id=":1/3_8" function="internal">
        <lane id=":1/3_8_0" index="0" speed="13.90" length="5.00" shape="1001.65,2995.25 1001.84,2996.61 1002.43,2997.58 1003.39,2998.16 1004.75,2998.35"/>
    </edge>
    <edge id=":1/3_9" function="internal">
        <lane id=":1/3_9_0" index="0" speed="13.90" length="9.50" shape="1001.65,2995.25 1001.65,3004.75"/>
    </edge>
    <edge id=":1/3_10" function="internal">
        <lane id=":1/3_10_0" index="0" speed="13.90" length="7.14" shape="1001.65,2995.25 1001.25,2998.05 1000.05,3000.05 998.35,3001.07"/>
    </edge>
    <edge id=":1/3_18" function="internal">
        <lane id=":1/3_18_0" index="0" speed="13.90" length="3.18" shape="998.35,3001.07 998.05,3001.25 995.25,3001.65"/>
    </edge>
    <edge id=":1/3_11" function="internal">
        <lane id=":1/3_11_0" index="0" speed="13.90" length="2.41" shape="1001.65,2995.25 1000.83,2996.49 1000.00,2996.90"/>
    </edge>
    <edge id=":1/3_19" function="internal">
        <lane id=":1/3_19_0" index="0" speed="13.90" length="2.41" shape="1000.00,2996.90 999.17,2996.49 998.35,2995.25"/>
    </edge>
    <edge id=":1/3_12" function="internal">
        <lane id=":1/3_12_0" index="0" speed="13.90" length="5.00" shape="995.25,2998.35 996.61,2998.16 997.57,2997.57 998.16,2996.61 998.35,2995.25"/>
    </edge>
    <edge id=":1/3_13" function="internal">
        <lane id=":1/3_13_0" index="0" speed="13.90" length="9.50" shape="995.25,2998.35 1004.75,2998.35"/>
    </edge>
    <edge id=":1/3_14" function="internal">
        <lane id=":1/3_14_0" index="0" speed="13.90" length="10.32" shape="995.25,2998.35 998.05,2998.75 1000.05,2999.95 1001.25,3001.95 1001.65,3004.75"/>
    </edge>
    <edge id=":1/3_15" function="internal">
        <lane id=":1/3_15_0" index="0" speed="13.90" length="4.82" shape="995.25,2998.35 996.49,2999.17 996.90,3000.00 996.49,3000.82 995.25,3001.65"/>
    </edge>
    <edge id=":1/4_0" function="internal">
        <lane id=":1/4_0_0" index="0" speed="13.90" length="5.00" shape="998.35,4004.75 998.16,4003.39 997.57,4002.42 996.61,4001.84 995.25,4001.65"/>
    </edge>
    <edge id=":1/4_1" function="internal">
        <lane id=":1/4_1_0" index="0" speed="13.90" length="9.50" shape="998.35,4004.75 998.35,3995.25"/>
    </edge>
    <edge id=":1/4_2" function="internal">
        <lane id=":1/4_2_0" index="0" speed="13.90" length="7.14" shape="998.35,4004.75 998.75,4001.95 999.95,3999.95 1001.65,3998.93"/>
    </edge>
    <edge id=":1/4_16" function="internal">
        <lane id=":1/4_16_0" index="0" speed="13.90" length="3.18" shape="1001.65,3998.93 1001.95,3998.75 1004.75,3998.35"/>
    </edge>
    <edge id=":1/4_3" function="internal">
        <lane id=":1/4_3_0" index="0" speed="13.90" length="2.41" shape="998.35,4004.75 999.17,4003.51 1000.00,4003.10"/>
    </edge>
    <edge id=":1/4_17" function="internal">
        <lane id=":1/4_17_0" index="0" speed="13.90" length="2.41" shape="1000.00,4003.10 1000.83,4003.51 1001.65,4004.75"/>
    </edge>
    <edge id=":1/4_4" function="internal">
        <lane id=":1/4_4_0" index="0" speed="13.90" length="5.00" shape="1004.75,4001.65 1003.39,4001.84 1002.43,4002.43 1001.84,4003.39 1001.65,4004.75"/>
    </edge>
    <edge id=":1/4_5" function="internal">
        <lane id=":1/4_5_0" index="0" speed="13.90" length="9.50" shape="1004.75,4001.65 995.25,4001.65"/>
    </edge>
    <edge id=":1/4_6" function="internal">
        <lane id=":1/4_6_0" index="0" speed="13.90" length="10.32" shape="1004.75,4001.65 1001.95,4001.25 999.95,4000.05 998.75,3998.05 998.35,3995.25"/>
    </edge>
    <edge id=":1/4_7" function="internal">
        <lane id=":1/4_7_0" index="0" speed="13.90" length="4.82" shape="1004.75,4001.65 1003.51,4000.83 1003.10,4000.00 1003.51,3999.18 1004.75,3998.35"/>
    </edge>
    <edge id=":1/4_8" function="internal">
        <lane id=":1/4_8_0" index="0" speed="13.90" length="5.00" shape="1001.65,3995.25 1001.84,3996.61 1002.43,3997.58 1003.39,3998.16 1004.75,3998.35"/>
    </edge>
    <edge id=":1/4_9" function="internal">
        <lane id=":1/4_9_0" index="0" speed="13.90" length="9.50" shape="1001.65,3995.25 1001.65,4004.75"/>
    </edge>
    <edge id=":1/4_10" function="internal">
        <lane id=":1/4_10_0" index="0" speed="13.90" length="7.14" shape="1001.65,3995.25 1001.25,3998.05 1000.05,4000.05 998.35,4001.07"/>
    </edge>
    <edge id=":1/4_18" function="internal">
        <lane id=":1/4_18_0" index="0" speed="13.90" length="3.18" shape="998.35,4001.07 998.05,4001.25 995.25,4001.65"/>
    </edge>
    <edge id=":1/4_11" function="internal">
        <lane id=":1/4_11_0" index="0" speed="13.90" length="2.41" shape="1001.65,3995.25 1000.83,3996.49 1000.00,3996.90"/>
    </edge>