[General]
cmdenv-express-mode = true
cmdenv-autoflush = true
cmdenv-status-frequency = 10000000s

tkenv-default-config = General

#tkenv-default-config = debug
#tkenv-default-run = 1
tkenv-image-path = bitmaps

ned-path = ../../../src/base;../../../src/modules;../../../examples;
network = org.mixim.examples.veins.scenarioOpp

##############################################################################
# OK, HERE I'll ADD THE SEED DATA AND NUMBER OF REPETITIONS
##############################################################################
repeat = 20 #how many repetitions. I only run 20.
seed-set = ${runnumber} #Every repetition with a uniq seed based on the run number -r.
num-rngs = 2
**.netw.rng-0 = 1
*.node[*].mobility.rng-0 = 0 
#This is the command line instruction: 
#command line instruction: 

##########################################################
#            Simulation parameters                       #
##########################################################
debug-on-errors = true
print-undisposed = false

#sim-time-limit = 7200s #2700s #7200s
sim-time-limit = 1000s #2700s #7200s

#record-eventlog = true #this to record a log file
#**.udpapp.*.vector-recording = false #true

**.netw.*.vector-recording = true
**.appl.*.vector-recording = true
*.manager.*.vector-recording = true
**.vector-recording = false #true

**.netw.*.scalar-recording = true
**.appl.*.scalar-recording = true
*.node[*].mobility.*.scalar-recording = true 
**.scalar-recording = false #true

**.debug = true #false
**.coreDebug = true #false

#Defining by defaul the Cologne scenarioOpp
*.playgroundSizeX = 12000m	
*.playgroundSizeY = 8000m
*.playgroundSizeZ = 10000m
#*.playgroundSizeX = 5000m	
#*.playgroundSizeY = 5000m
#*.playgroundSizeZ = 5000m

##########################################################
# Annotation parameters                                  #
##########################################################
*.annotations.draw = false

##########################################################
# Obstacle parameters                                    #
##########################################################
*.obstacles.debug = false

##########################################################
#            WorldUtility parameters                     #
##########################################################
*.world.useTorus = false
*.world.use2D = false

##########################################################
#            TraCIscenarioOppManager parameters             #
##########################################################
*.manager.updateInterval = 1s  #OK this is Important to have the same simTime on both Omnetpp and SUMO.cfg <step-length value="0.1"/> 
*.manager.host = "localhost"
*.manager.port = 9999
*.manager.moduleType = "org.mixim.examples.veins.CarOpp"
*.manager.moduleName = "node"
*.manager.moduleDisplayString = ""
*.manager.autoShutdown = true
#*.manager.launchConfig = xmldoc("paper.launch.xml") #Using my own SUMO Network
*.manager.launchConfig = xmldoc("comunity.launch.xml") #Using my own SUMO Network
*.manager.margin = 25
#*.manager.roiRects = "0,0-3500,3500" #active messages in this rectangle.
#*.manager.margin = 25

##########################################################
#            11p specific parameters                     #
#                    NIC-Settings                        #
##########################################################
*.connectionManager.pMax = 10mW
*.connectionManager.sat = -80dBm
*.connectionManager.carrierFrequency = 5.890e9 Hz
*.connectionManager.sendDirect = false #true 
*.**.nic.mac1609_4.serviceChannel = 2
*.**.nic.mac80211p.bitrate = 18Mbps
*.**.nic.phy80211p.maxTXPower = 20mW
*.**.nic.phy80211p.useThermalNoise = true #true
*.**.nic.phy80211p.thermalNoise = -110dBm
*.**.nic.phy80211p.decider = xmldoc("config.xml")
*.**.nic.phy80211p.analogueModels = xmldoc("config.xml")
*.**.nic.phy80211p.usePropagationDelay = true #true

##*.connectionManager.alpha = 2.0 #for changing maximum transmission range
*.**.nic.mac80211p.txPower = 10mW #for changing maximum transmission range
*.**.nic.phy80211p.sensitivity = -80dBm #for changing maximum transmission range

#testing area
#OK the idea is to change the transmission range for each node:
#Using FRISS equation: http://www.moxa.com/newsletter/connection/2008/03/Figure_out_transmission_distance_from_wireless_device_specs.htm
# 15.5mW, -80dBm = 300m.
# 10mW, -80dBm = 127m.
#----------
#scenarioOpp.VPA[*].nic.mac80211p.txPower = 15.5mW#15.5mW
#scenarioOpp.VPA[*].nic.phy80211p.sensitivity= -80dBm#-80dBm
#scenarioOpp.node[*].nic.mac80211p.txPower = 10mW
#scenarioOpp.node[*].nic.phy80211p.sensitivity= -80dBm
*.connectionManager.alpha = 2.0 #2.0
**.drawMaxIntfDist = true
#testing area


##########################################################
#       Mobility Types			                         #
##########################################################
*.node[*].mobilityType = "TraCIMobility"
*.node[*].mobility.x = 0
*.node[*].mobility.y = 0
*.node[*].mobility.z = 1.895
*.node[*].mobility.targetFileName = "targetEdges"

*.VPA[*].mobilityType = "ConstSpeedMobility"
*.VPA[*].Mobility.speed = 0
*.VPA[*].Mobility.updateInterval = 0.1s
*.VPA[*].Mobility.coreDebug = false #true
*.VPA[*].Mobility.z = 1.895 #all VPAs z axis > 0

##########################################################
#    WaveAppLayer Apps for VEHICLES & VPAs               #
##########################################################
*.VPA[*].applType = "VPApOpp"
*.VPA[*].appl.debug = false
*.VPA[*].appl.dtnTestMode = true
*.VPA[*].appl.dtnSynchronized = true
*.VPA[*].appl.dtnTestCycle = 50
*.VPA[*].appl.dtnTestMaxTime = 7200
*.VPA[*].appl.silentMode = false
#*.VPA[*].appl.headerLength = 256 bit 
*.VPA[*].appl.headerLength = 256 #OK I get rid of the measure Units.
#*.VPA[*].appl.dataOnSch = false #true= SCH, false= CCH
*.VPA[*].appl.dataOnSch = true #true= SCH, false= CCH
*.VPA[*].appl.beaconPriority = 3
*.VPA[*].appl.dataPriority = 2
#*.VPA[*].appl.sendData = true
#*.VPA[*].appl.beaconInterval = 5s
#*.VPA[*].appl.sendBeacons = true
*.VPA[*].appl.timeT= 10s#5s



*.node[*].applType = "VEHICLEpOpp"
*.node[*].appl.debug = false
*.node[*].appl.headerLength = 256 #NOTE I HAVE PROBLEMS SENDING THESE VALUES..!!!  OK I get rid of the measure Units.
*.node[*].appl.dataOnSch = false #true= SCH, false= CCH
*.node[*].appl.beaconPriority = 3
*.node[*].appl.dataPriority = 2
#*.node[*].appl.sendData= true
#*.node[*].appl.beaconInterval = 5s
#*.node[*].appl.sendBeacons = true 
*.node[*].appl.dtnTestMode = false
*.node[*].appl.dtnSynchronized = true
*.node[*].appl.dtnTestCycle = 150
*.node[*].appl.dtnTestMaxTime = 7200
*.node[*].appl.sectorMode = false
**.appl.updateMode = false

#*.node[*].appl.epicenterValue= 20m#passing value of epicenter junction.
*.node[*].appl.offsetX = 0 # extra value for X axis
*.node[*].appl.offsetY = 0 # extra value for Y axis
*.node[*].appl.maxY = 6000 #Tama#o Max. Y axis

############### Data for the Application for APPS_CW. ###################
*.node[*].appl.timeT = 5  #100000 #5 #0.1  
*.node[*].appl.appCW = false #use APPS_CW. This value is ON always. This is to activate the MAC backoff mechanism.
*.**.nic.mac80211p.arturoBackoff = false  #Activar algorithm en Mac80211p.cc
*.node[*].appl.appMinCW = 7#500#50#25 #7 #This is my initial APP_CW window, I'm using this value to activate backoffs in Mac80211p layer

##########################################################
#       Network Layers Parameters (Including ProphetV2)  #
##########################################################
#scenarioOpp.VPA[*].netw.headerLength = 0bit
#scenarioOpp.node[*].netw.headerLength = 0bit

**.netw.PMinThreshold = 0.1
**.netw.I_TYP = 120
**.netw.secondsInTimeUnit = 2

**.netw.withAck = true
**.netw.MTU = 10000000

**.netw.withGlobalClassifier = false
**.netw.withSuccClassifier = false
**.netw.withFailClassifier = false
###############################
#ROAD SIDE UNITS....
###############################
#Number of VPAs.
scenarioOpp.numeroNodes = 15

scenarioOpp.VPA[0].Mobility.x = 1025 
scenarioOpp.VPA[0].Mobility.y = 1025
scenarioOpp.VPA[1].Mobility.x = 3025 
scenarioOpp.VPA[1].Mobility.y = 1025
scenarioOpp.VPA[2].Mobility.x = 5025 
scenarioOpp.VPA[2].Mobility.y = 1025
scenarioOpp.VPA[3].Mobility.x = 7025
scenarioOpp.VPA[3].Mobility.y = 1025
scenarioOpp.VPA[4].Mobility.x = 9025
scenarioOpp.VPA[4].Mobility.y = 1025
scenarioOpp.VPA[5].Mobility.x = 1025 
scenarioOpp.VPA[5].Mobility.y = 3025
scenarioOpp.VPA[6].Mobility.x = 3025 
scenarioOpp.VPA[6].Mobility.y = 3025
scenarioOpp.VPA[7].Mobility.x = 5025 
scenarioOpp.VPA[7].Mobility.y = 3025
scenarioOpp.VPA[8].Mobility.x = 7025
scenarioOpp.VPA[8].Mobility.y = 3025
scenarioOpp.VPA[9].Mobility.x = 9025
scenarioOpp.VPA[9].Mobility.y = 3025
scenarioOpp.VPA[10].Mobility.x = 1025 
scenarioOpp.VPA[10].Mobility.y = 5025
scenarioOpp.VPA[11].Mobility.x = 3025
scenarioOpp.VPA[11].Mobility.y = 5025
scenarioOpp.VPA[12].Mobility.x = 5025
scenarioOpp.VPA[12].Mobility.y = 5025
scenarioOpp.VPA[13].Mobility.x = 7025
scenarioOpp.VPA[13].Mobility.y = 5025
scenarioOpp.VPA[14].Mobility.x = 9025
scenarioOpp.VPA[14].Mobility.y = 5025