<?xml version="1.0"?>

<!-- generated on Sun Jan  4 15:01:54 2015 by SUMO jtrrouter Version 0.13.1
<?xml version="1.0" encoding="iso-8859-1"?>

<configuration xmlns:xsi="http://www.w3.org/2001/XMLSchema-instance" xsi:noNamespaceSchemaLocation="http://sumo.sf.net/xsd/jtrrouterConfiguration.xsd">

    <input>
        <net-file value="petitprophet.net.xml"/>
        <flow-files value="flow.xml"/>
        <turn-ratio-files value="turndef.xml"/>
    </input>

    <output>
        <output-file value="petitprophet.rou.xml"/>
    </output>

    <processing>
        <max-edges-factor value="5"/>
        <sink-edges value="end,B0R"/>
    </processing>

    <time>
        <begin value="0"/>
        <end value="3600"/>
    </time>

</configuration>
-->

<routes xmlns:xsi="http://www.w3.org/2001/XMLSchema-instance" xsi:noNamespaceSchemaLocation="http://sumo.sf.net/xsd/routes_file.xsd">
    <route id="virtual_loop0" color="1,1,0" edges="start B0 B1 E2 A1R D2R B1 B2 B3 B4 end"/>
    <route id="virtual_loop1" color="1,1,0" edges="B4R B3R B2R B1R D2 A1 E2R B1R B0R "/>
    
    <vehicle id="0_0" depart="0.00">
        <route edges="start B0 D1 C1 C2 C3 C3R F1R B2R E1 E1R B1R D1 C1 C2 C3 C3R C2R E1R B2 F1 C2R C2 C2R C2 F1R F2 F2R B3 G1R C3R C2R C1R D1R B0R"/>
    </vehicle>
    <vehicle id="1_0" depart="0.00">
        <route edges="B4R G2R A3R F2R B3 B3R B2R B2 F2 A2R A1R A1 A2 A2R E2R B1R D1 D1R D1 D1R D2 D2R B1 B2 F1 C2R E1R B1R D1 C1 C1R C1 C2 F1R B2R B1R D2 A1 A2 A2R A2 A2R A1R A1 A1R D2R B1 B2 B2R E1 C2 C3 C3R C3 G1 G1R C3R C3 G1 B3R B3 B3R F2 A3 G2 B4 B4R G1R C3R F1R F1 F1R B3 B4 B4R G1R C3R C3 G1 G2R A3R F2R B2R E1 C1R D1R B1 B2 B2R B2 F1 F1R F2 A2R E2R B2 F1 C3 G1 B4 B4R G1R G1 G1R C3R F1R F1 F1R F2 A3 A3R F2R F2 A3 G2 B3R B3 G2R A3R A3 A3R A3 G2 B3R B3 G2R A3R A2R E2R E2 A2 F2R B3 G2R G2 B4 end"/>
    </vehicle>
    <vehicle id="0_1" depart="20.00">
        <route edges="start B0 B0R"/>
    </vehicle>
    <vehicle id="1_1" depart="20.00">
        <route edges="B4R B3R B3 B4 end"/>
    </vehicle>
    <vehicle id="0_2" depart="40.00">
        <route edges="start B0 B1 E2 A1R D2R B0R"/>
    </vehicle>
    <vehicle id="1_2" depart="40.00">
        <route edges="B4R G2R A3R A2R A1R A1 A1R D2R B1 B2 F2 A3 A3R A2R E2R B1R D2 D2R D2 A1 A1R D2R B0R"/>
    </vehicle>
    <vehicle id="0_3" depart="60.00">
        <route edges="start B0 D1 D1R B0R"/>
    </vehicle>
    <vehicle id="1_3" depart="60.00">
        <route edges="B4R B4 B4R G1R C3R C3 G1 G1R G1 B3R F2 A3 A3R A3 A3R A3 A3R A3 G2 G2R A3R F2R B2R B1R B1 B2 B3 B4 end"/>
    </vehicle>
    <vehicle id="0_4" depart="80.00">
        <route edges="start B0 B1 E2 A2 A2R A1R D2R B0R"/>
    </vehicle>
    <vehicle id="1_4" depart="80.00">
        <route edges="B4R B3R B2R E2 A1R A1 A1R A1 E2R E1 C2 C3 C3R F1R F2 A3 A3R A3 G2 B4 B4R B3R B3 G1R C3R F1R F2 A3 A3R F2R F1 C2R C2 F1R F2 F2R F2 A2R A2 A3 A3R A2R A2 F2R F1 F1R B2R E2 A2 A3 A3R F2R F2 F2R F1 C2R E1R E2 E2R E1 C1R C1 E1R E2 A1R A1 E2R B2 B2R E2 E2R B1R B0R"/>
    </vehicle>
    <vehicle id="0_5" depart="100.00">
        <route edges="start B0 B0R"/>
    </vehicle>
    <vehicle id="1_5" depart="100.00">
        <route edges="B4R B3R F1 F1R F1 F1R B2R E2 E2R E1 C1R D1R B1 E2 A1R A1 A2 A2R A1R A1 A1R D2R B1 E2 E2R B1R D2 D2R B0R"/>
    </vehicle>
    <vehicle id="0_6" depart="120.00">
        <route edges="start B0 B1 E2 A1R A1 A1R A1 E2R E2 A2 F2R F2 A3 G2 G1R C3R C3 G1 G1R C3R F1R B2R E1 C1R C1 E1R E2 A1R A1 A1R D2R D2 D2R D1 D1R D1 C1 E1R E2 A2 A3 G2 G1R G1 B3R B3 G1R G1 B3R B3 B3R F2 F2R B2R E1 C1R C1 C1R D1R B0R"/>
    </vehicle>
    <vehicle id="1_6" depart="120.00">
        <route edges="B4R G2R A3R A2R A1R D2R D2 D2R B1 E1 C2 F1R F2 F2R B3 G2R G2 G2R A3R A2R A1R D2R B1 E2 A1R A1 A2 A3 A3R A3 A3R F2R F1 C3 C3R F1R F2 A3 G2 G1R C3R C2R E1R E1 C2 C3 G1 B4 B4R G1R G1 B4 end"/>
    </vehicle>
    <vehicle id="0_7" depart="140.00">
        <route edges="start B0 D1 D1R D1 C1 E1R E2 A1R A1 E2R E2 E2R E2 E2R E2 A1R D2R D2 D2R D2 D2R B1 E2 A1R D2R B0R"/>
    </vehicle>
    <vehicle id="1_7" depart="140.00">
        <route edges="B4R G2R A3R F2R F1 F1R B2R E1 C2 C3 G1 B3R B2R B1R B0R"/>
    </vehicle>
    <vehicle id="0_8" depart="160.00">
        <route edges="start B0 D2 D2R D1 C1 C2 C2R C2 F1R B2R B1R D1 C1 E1R B2 F2 A3 A3R A3 G2 B4 B4R G1R G1 B3R B2R E2 A1R D2R B0R"/>
    </vehicle>
    <vehicle id="1_8" depart="160.00">
        <route edges="B4R B4 end"/>
    </vehicle>
    <vehicle id="0_9" depart="180.00">
        <route edges="start B0 D1 D1R D2 A1 A2 A3 G2 G2R A3R A3 G2 B4 B4R B4 end"/>
    </vehicle>
    <vehicle id="1_9" depart="180.00">
        <route edges="B4R G1R C3R F1R B3 G2R A3R F2R F2 A3 G2 B4 B4R B4 B4R B4 B4R G2R G2 G1R C3R F1R F1 C2R E1R E1 E1R E2 A1R A1 A2 F2R B3 B3R B2R E2 E2R E2 E2R E2 E2R E2 E2R E1 C2 F1R B3 G2R A3R F2R B2R B1R B0R"/>
    </vehicle>
    <vehicle id="0_10" depart="200.00">
        <route edges="start B0 B0R"/>
    </vehicle>
    <vehicle id="1_10" depart="200.00">
        <route edges="B4R B3R F1 C3 C3R F1R B3 B4 B4R G2R G2 G2R A3R F2R B2R B1R D2 D2R B1 E2 A2 F2R B3 B4 end"/>
    </vehicle>
    <vehicle id="0_11" depart="220.00">
        <route edges="start B0 B0R"/>
    </vehicle>
    <vehicle id="1_11" depart="220.00">
        <route edges="B4R G2R A3R A2R E2R E1 C2 F1R F2 A2R E2R B2 B2R E2 A2 A3 A3R F2R F1 C2R C1R D1R D1 C1 E1R E1 C1R C1 C1R C1 C1R D1R B1 E1 E1R B1R D2 D2R D2 A1 E2R E1 C1R D1R B1 E2 A2 A2R A2 A2R A2 A3 A3R A2R E2R B1R B1 B2 F1 C2R E1R E2 E2R E1 C2 C3 C3R C2R C2 C3 C3R F1R F1 C3 C3R F1R B2R B1R D2 A1 A2 A3 A3R A2R E2R B2 F2 A2R A2 A3 G2 G1R C3R F1R B2R B2 F2 A2R A2 F2R B2R B1R D2 D2R B1 B2 B2R B1R B1 B2 B2R E1 C1R D1R D2 A1 A2 F2R B3 B4 B4R B3R B2R B2 F2 F2R F1 C2R E1R E2 E2R B2 F1 C3 C3R C2R E1R B1R D2 A1 A2 F2R F1 F1R B2R E1 C2 C3 G1 B4 end"/>
    </vehicle>
    <vehicle id="0_12" depart="240.00">
        <route edges="start B0 B1 E2 A2 F2R B2R B1R B0R"/>
    </vehicle>
    <vehicle id="1_12" depart="240.00">
        <route edges="B4R G1R C3R C3 G1 B3R B3 B3R B2R E2 A2 F2R F2 F2R F2 A2R A1R A1 A1R A1 A2 F2R F2 A3 A3R A3 A3R A3 G2 B3R F2 A2R A1R D2R B1 E1 E1R B1R B0R"/>
    </vehicle>
    <vehicle id="0_13" depart="260.00">
        <route edges="start B0 D1 D1R D1 D1R B1 E2 A1R D2R D2 D2R D1 D1R D1 C1 C1R D1R D1 C1 E1R E1 C2 C3 G1 G1R C3R C2R C2 C2R C2 C2R C2 C3 C3R C3 G1 B4 B4R B4 end"/>
    </vehicle>
    <vehicle id="1_13" depart="260.00">
        <route edges="B4R G1R C3R C2R E1R E2 A1R A1 E2R E1 C1R D1R B0R"/>
    </vehicle>
    <vehicle id="0_14" depart="280.00">
        <route edges="start B0 B1 E2 A1R A1 E2R E1 C2 C2R C2 F1R B3 G1R C3R C3 G1 G1R G1 G1R G1 B4 B4R B4 B4R G2R A3R A3 A3R A3 A3R A2R A2 A3 G2 G2R A3R A3 A3R F2R B3 B4 B4R G1R C3R F1R F2 F2R B2R B1R B0R"/>
    </vehicle>
    <vehicle id="1_14" depart="280.00">
        <route edges="B4R B3R F2 A2R A1R A1 A2 A2R E2R E2 E2R B2 F2 A3 A3R A3 G2 G2R A3R A3 G2 B3R F2 F2R F1 C2R C2 F1R B2R E2 A1R D2R D1 C1 C1R D1R B1 B2 F1 F1R B2R B2 F2 A2R A1R D2R B0R"/>
    </vehicle>
    <vehicle id="0_15" depart="300.00">
        <route edges="start B0 D1 D1R D1 C1 C1R D1R B0R"/>
    </vehicle>
    <vehicle id="1_15" depart="300.00">
        <route edges="B4R B3R F1 F1R B2R E1 C2 F1R B2R B1R D2 D2R D1 C1 C1R D1R B0R"/>
    </vehicle>
    <vehicle id="0_16" depart="320.00">
        <route edges="start B0 D1 C1 E1R B1R D2 A1 A2 F2R B3 G2R G2 B4 end"/>
    </vehicle>
    <vehicle id="1_16" depart="320.00">
        <route edges="B4R B3R B3 B3R B3 B3R B2R B2 F1 F1R F1 F1R F2 F2R B2R E1 C2 C3 C3R C3 C3R C2R C1R D1R B1 E2 A1R A1 A1R D2R D1 D1R B1 B1R D1 D1R D1 D1R D1 D1R D1 C1 C2 F1R F1 F1R F2 A2R E2R E1 C2 F1R B2R B2 F2 A3 G2 G1R C3R F1R F1 F1R B2R E2 A2 A2R A2 A2R A2 A3 A3R A3 A3R F2R F2 A3 G2 G2R G2 B4 B4R B4 end"/>
    </vehicle>
    <vehicle id="0_17" depart="340.00">
        <route edges="start B0 D1 D1R D2 A1 E2R E2 E2R E2 A2 A2R A1R D2R D2 D2R D1 D1R D1 C1 C1R D1R D2 D2R B0R"/>
    </vehicle>
    <vehicle id="1_17" depart="340.00">
        <route edges="B4R B3R B2R E1 E1R B1R D2 A1 A1R D2R B0R"/>
    </vehicle>
    <vehicle id="0_18" depart="360.00">
        <route edges="start B0 B0R"/>
    </vehicle>
    <vehicle id="1_18" depart="360.00">
        <route edges="B4R G2R G2 G1R G1 B3R F1 F1R F2 A2R A1R D2R D2 A1 A1R A1 E2R E2 A1R D2R D2 D2R B0R"/>
    </vehicle>
    <vehicle id="0_19" depart="380.00">
        <route edges="start B0 B1 E1 C2 C2R C2 F1R B3 G1R C3R C3 C3R F1R F1 C2R C2 C3 C3R C3 G1 B3R B3 B4 end"/>
    </vehicle>
    <vehicle id="1_19" depart="380.00">
        <route edges="B4R B3R F2 F2R B3 G1R G1 B4 end"/>
    </vehicle>
    <vehicle id="0_20" depart="400.00">
        <route edges="start B0 D2 D2R D2 D2R D1 D1R B0R"/>
    </vehicle>
    <vehicle id="1_20" depart="400.00">
        <route edges="B4R B3R B3 G2R G2 G2R A3R A2R E2R B1R B1 B2 F2 A3 G2 B3R F1 C2R C1R C1 C1R C1 C2 F1R B2R E1 C1R C1 C2 C3 C3R C2R C1R D1R B1 B1R D2 D2R D1 D1R B0R"/>
    </vehicle>
    <vehicle id="0_21" depart="420.00">
        <route edges="start B0 B1 E1 C2 F1R B2R B2 B2R E2 A1R A1 E2R E1 C1R C1 C2 C3 C3R C3 C3R F1R F2 A3 G2 G1R G1 G2R G2 B3R F1 C2R E1R B2 B2R B1R B1 B1R B1 E1 E1R E1 C1R D1R B0R"/>
    </vehicle>
    <vehicle id="1_21" depart="420.00">
        <route edges="B4R B3R B3 B4 end"/>
    </vehicle>
    <vehicle id="0_22" depart="440.00">
        <route edges="start B0 B1 E1 C2 F1R F1 F1R B3 B4 B4R G2R G2 G2R A3R A2R E2R E1 C2 F1R B3 G1R G1 B4 B4R G2R A3R A2R A1R A1 E2R B1R B0R"/>
    </vehicle>
    <vehicle id="1_22" depart="440.00">
        <route edges="B4R G1R C3R C3 G1 G2R A3R A2R A1R A1 E2R B2 F1 F1R B3 B3R B2R B1R D1 D1R D2 D2R D2 A1 A2 F2R F1 F1R B3 B3R B2R E1 E1R E1 C2 C2R C1R C1 C1R D1R D1 D1R D1 D1R B1 E1 C1R C1 C2 C3 G1 B4 B4R B3R B2R E1 C1R D1R D2 A1 A1R D2R D1 D1R B1 B1R B0R"/>
    </vehicle>
    <vehicle id="0_23" depart="460.00">
        <route edges="start B0 D1 C1 C1R C1 E1R E1 C1R C1 C1R D1R B0R"/>
    </vehicle>
    <vehicle id="1_23" depart="460.00">
        <route edges="B4R G1R C3R C3 C3R C3 C3R F1R F1 C2R C1R C1 C1R D1R B0R"/>
    </vehicle>
    <vehicle id="0_24" depart="480.00">
        <route edges="start B0 B1 E1 C1R C1 C1R C1 E1R B2 F1 C3 C3R C3 G1 B3R B2R E1 E1R E2 A1R D2R B0R"/>
    </vehicle>
    <vehicle id="1_24" depart="480.00">
        <route edges="B4R G1R G1 G1R G1 G1R G1 B3R F2 F2R B3 G1R G1 B3R F1 F1R F1 C3 C3R C3 C3R C3 G1 G1R C3R C3 G1 B4 end"/>
    </vehicle>
    <vehicle id="0_25" depart="500.00">
        <route edges="start B0 B1 E1 C1R C1 E1R B1R D1 D1R D2 A1 E2R E1 C2 C3 G1 B4 B4R B3R F2 F2R B2R B1R B0R"/>
    </vehicle>
    <vehicle id="1_25" depart="500.00">
        <route edges="B4R B4 B4R G2R G2 G2R G2 B3R B2R B1R B1 B2 B2R B2 B2R B1R D2 A1 A2 A3 A3R A2R A1R A1 A1R D2R B1 B2 F1 C2R C2 C3 C3R C3 C3R C3 C3R C2R E1R E2 E2R B1R D1 C1 C1R C1 C1R D1R D2 A1 A2 A2R E2R B1R D1 C1 C1R C1 C1R C1 E1R E2 E2R B1R B1 B1R D1 C1 E1R B1R B0R"/>
    </vehicle>
    <vehicle id="0_26" depart="520.00">
        <route edges="start B0 D1 D1R D1 C1 C1R D1R B1 E1 C1R C1 E1R E2 A1R A1 A2 F2R B3 G2R G2 B3R B2R E2 A1R D2R B1 E2 A1R D2R B1 E1 C2 C3 C3R C2R C2 F1R B2R E1 E1R E2 E2R B1R B1 B2 B2R B2 F2 F2R B2R B2 B2R B1R B1 B2 B3 B3R F2 A2R A2 F2R F2 A2R E2R E1 C1R D1R D1 D1R B1 E2 E2R E1 C1R C1 C1R D1R D1 C1 E1R E1 C1R D1R D1 C1 E1R B2 B3 G1R G1 G2R G2 G1R C3R C3 G1 G1R G1 B3R F2 F2R F1 F1R B3 G1R G1 B3R B3 B3R F1 C3 G1 G1R C3R F1R B3 G1R G1 G1R C3R F1R F2 F2R B3 G1R C3R C2R E1R B1R B0R"/>
    </vehicle>
    <vehicle id="1_26" depart="520.00">
        <route edges="B4R B4 end"/>
    </vehicle>
    <vehicle id="0_27" depart="540.00">
        <route edges="start B0 B1 B1R B0R"/>
    </vehicle>
    <vehicle id="1_27" depart="540.00">
        <route edges="B4R B3R F1 F1R B3 G1R C3R C3 G1 G2R G2 B3R F1 C2R C2 C2R C1R D1R D2 A1 E2R B2 B2R B1R B0R"/>
    </vehicle>
    <vehicle id="0_28" depart="560.00">
        <route edges="start B0 D2 A1 A2 F2R B2R E1 C1R C1 E1R B1R B0R"/>
    </vehicle>
    <vehicle id="1_28" depart="560.00">
        <route edges="B4R B4 end"/>
    </vehicle>
    <vehicle id="0_29" depart="580.00">
        <route edges="start B0 D2 A1 A1R D2R B1 E1 C1R C1 E1R B1R D2 A1 A2 A2R A1R A1 A1R D2R D1 C1 C2 C3 C3R F1R B2R E2 A1R A1 A1R D2R B0R"/>
    </vehicle>
    <vehicle id="1_29" depart="580.00">
        <route edges="B4R B4 B4R G2R G2 G1R G1 B3R B3 G2R A3R A3 G2 B3R B3 G1R G1 G2R G2 B4 end"/>
    </vehicle>
    <vehicle id="0_30" depart="600.00">
        <route edges="start B0 B0R"/>
    </vehicle>
    <vehicle id="1_30" depart="600.00">
        <route edges="B4R B4 end"/>
    </vehicle>
    <vehicle id="0_31" depart="620.00">
        <route edges="start B0 D1 D1R B1 E1 C1R C1 E1R E1 C1R C1 C1R C1 E1R E2 A1R D2R D2 D2R D1 C1 C1R C1 C1R C1 C1R D1R D1 C1 C2 F1R F1 C3 C3R C3 C3R C2R C2 F1R B3 B3R B2R E1 E1R B1R B1 B2 B3 G2R G2 G2R G2 B3R F1 F1R F1 F1R F1 C3 C3R C2R C2 F1R B2R B1R D1 C1 C1R C1 E1R B2 B2R B2 B2R E1 C1R C1 E1R E2 A1R A1 A2 A3 A3R F2R F1 F1R F1 C3 G1 G1R G1 B4 B4R G2R G2 B3R B2R E1 C2 C3 G1 B4 end"/>
    </vehicle>
    <vehicle id="1_31" depart="620.00">
        <route edges="B4R G1R G1 B4 end"/>
    </vehicle>
    <vehicle id="0_32" depart="640.00">
        <route edges="start B0 D1 C1 E1R E2 E2R E1 C1R D1R D1 C1 C2 C3 C3R C2R C2 C3 G1 G1R G1 G1R G1 B3R B2R E1 C1R C1 E1R B1R D2 D2R D1 D1R D2 A1 A1R D2R D1 D1R D1 D1R B0R"/>
    </vehicle>
    <vehicle id="1_32" depart="640.00">
        <route edges="B4R B4 B4R B4 end"/>
    </vehicle>
    <vehicle id="0_33" depart="660.00">
        <route edges="start B0 D1 D1R D2 D2R B1 B2 F1 C3 C3R F1R B3 G1R G1 B4 B4R B4 B4R G1R G1 B3R B3 B4 B4R G2R G2 G2R A3R A2R A1R D2R B1 E1 C1R C1 C2 F1R B2R B1R D2 D2R B0R"/>
    </vehicle>
    <vehicle id="1_33" depart="660.00">
        <route edges="B4R B3R B3 G2R G2 B4 end"/>
    </vehicle>
    <vehicle id="0_34" depart="680.00">
        <route edges="start B0 B1 E2 E2R E2 E2R E1 E1R B1R D1 D1R B0R"/>
    </vehicle>
    <vehicle id="1_34" depart="680.00">
        <route edges="B4R G1R G1 B4 end"/>
    </vehicle>
    <vehicle id="0_35" depart="700.00">
        <route edges="start B0 D1 D1R B1 B1R B1 E1 E1R E1 C2 C3 C3R C2R E1R B2 F2 A2R A2 A2R A1R A1 E2R E2 A2 A2R A2 F2R F1 C2R C1R D1R B0R"/>
    </vehicle>
    <vehicle id="1_35" depart="700.00">
        <route edges="B4R G2R A3R A3 A3R A2R E2R E1 C1R D1R D2 A1 A2 A2R A2 A3 G2 B4 B4R G1R G1 B3R B3 B4 B4R B4 end"/>
    </vehicle>
    <vehicle id="0_36" depart="720.00">
        <route edges="start B0 D2 D2R B0R"/>
    </vehicle>
    <vehicle id="1_36" depart="720.00">
        <route edges="B4R B4 B4R B3R B2R E1 E1R B2 B3 B3R B3 G2R G2 B3R F1 C3 C3R C2R C2 C2R E1R E2 A1R D2R D2 A1 E2R B1R B1 B1R B0R"/>
    </vehicle>
    <vehicle id="0_37" depart="740.00">
        <route edges="start B0 B0R"/>
    </vehicle>
    <vehicle id="1_37" depart="740.00">
        <route edges="B4R G1R C3R C3 C3R F1R B3 B4 B4R B4 end"/>
    </vehicle>
    <vehicle id="0_38" depart="760.00">
        <route edges="start B0 B1 B1R D1 C1 C2 F1R B3 B4 B4R B3R B2R E1 C2 F1R F1 C3 C3R F1R B2R E1 C1R D1R B1 B2 F1 C2R C2 C3 G1 B4 B4R G1R G1 G1R G1 G2R A3R A2R A1R D2R D1 C1 C2 C3 G1 B4 B4R G2R G2 B4 end"/>
    </vehicle>
    <vehicle id="1_38" depart="760.00">
        <route edges="B4R G1R G1 G2R A3R A3 G2 B4 end"/>
    </vehicle>
    <vehicle id="0_39" depart="780.00">
        <route edges="start B0 B0R"/>
    </vehicle>
    <vehicle id="1_39" depart="780.00">
        <route edges="B4R G2R A3R A2R E2R B2 F1 F1R F2 A2R E2R E2 E2R E1 C2 C3 C3R C3 G1 G1R G1 G1R G1 B4 B4R G1R C3R C2R E1R E2 E2R B1R D1 D1R B1 B2 B3 G2R G2 G2R G2 G2R G2 B4 B4R B3R F2 A2R A2 A2R A1R D2R D2 A1 A2 F2R F1 C2R E1R B1R D2 A1 A1R A1 E2R B1R D1 D1R D2 A1 A1R A1 A1R D2R B0R"/>
    </vehicle>
    <vehicle id="0_40" depart="800.00">
        <route edges="start B0 B0R"/>
    </vehicle>
    <vehicle id="1_40" depart="800.00">
        <route edges="B4R G2R A3R F2R B3 B3R F2 A2R A2 A3 A3R A3 G2 B3R F1 F1R F2 F2R F1 C2R E1R E2 E2R B2 B2R B1R B0R"/>
    </vehicle>
    <vehicle id="0_41" depart="820.00">
        <route edges="start B0 B0R"/>
    </vehicle>
    <vehicle id="1_41" depart="820.00">
        <route edges="B4R G1R C3R F1R B3 B4 end"/>
    </vehicle>
    <vehicle id="0_42" depart="840.00">
        <route edges="start B0 B1 B1R B1 E1 C2 C2R C2 C3 G1 B4 end"/>
    </vehicle>
    <vehicle id="1_42" depart="840.00">
        <route edges="B4R B4 end"/>
    </vehicle>
    <vehicle id="0_43" depart="860.00">
        <route edges="start B0 B0R"/>
    </vehicle>
    <vehicle id="1_43" depart="860.00">
        <route edges="B4R G2R A3R F2R F1 F1R F1 C2R C2 C3 G1 G2R G2 B4 B4R B4 B4R G1R C3R C3 G1 B3R F2 A2R A1R D2R B0R"/>
    </vehicle>
    <vehicle id="0_44" depart="880.00">
        <route edges="start B0 B1 B1R D1 D1R D2 A1 A2 F2R F1 F1R B2R E1 C1R D1R D2 D2R B0R"/>
    </vehicle>
    <vehicle id="1_44" depart="880.00">
        <route edges="B4R B4 end"/>
    </vehicle>
    <vehicle id="0_45" depart="900.00">
        <route edges="start B0 D1 D1R B0R"/>
    </vehicle>
    <vehicle id="1_45" depart="900.00">
        <route edges="B4R B4 B4R B3R F1 C2R C2 C2R E1R B1R B0R"/>
    </vehicle>
    <vehicle id="0_46" depart="920.00">
        <route edges="start B0 D2 A1 E2R B1R B0R"/>
    </vehicle>
    <vehicle id="1_46" depart="920.00">
        <route edges="B4R G2R A3R F2R B2R E2 E2R E1 E1R B2 B3 B4 end"/>
    </vehicle>
    <vehicle id="0_47" depart="940.00">
        <route edges="start B0 B1 B1R D2 D2R B1 B1R D2 A1 A1R A1 A1R D2R B1 B1R B0R"/>
    </vehicle>
    <vehicle id="1_47" depart="940.00">
        <route edges="B4R G1R G1 G2R A3R A2R E2R B1R D2 A1 A1R A1 A2 A2R A2 A2R A1R D2R B1 E2 E2R B2 B3 B4 end"/>
    </vehicle>
    <vehicle id="0_48" depart="960.00">
        <route edges="start B0 D1 C1 E1R B1R D1 D1R B1 B1R D1 C1 E1R B2 F2 A3 A3R A3 G2 B3R B3 G2R A3R A2R A1R D2R B0R"/>
    </vehicle>
    <vehicle id="1_48" depart="960.00">
        <route edges="B4R G2R G2 B3R B3 G1R C3R C3 G1 G2R G2 B4 end"/>
    </vehicle>
    <vehicle id="0_49" depart="980.00">
        <route edges="start B0 B0R"/>
    </vehicle>
    <vehicle id="1_49" depart="980.00">
        <route edges="B4R G1R C3R F1R F2 A3 G2 G2R G2 G1R G1 G1R G1 G1R G1 B4 B4R B4 end"/>
    </vehicle>
    <vehicle id="0_50" depart="1000.00">
        <route edges="start B0 B0R"/>
    </vehicle>
    <vehicle id="1_50" depart="1000.00">
        <route edges="B4R B4 end"/>
    </vehicle>
    <vehicle id="0_51" depart="1020.00">
        <route edges="start B0 B0R"/>
    </vehicle>
    <vehicle id="1_51" depart="1020.00">
        <route edges="B4R B4 B4R G2R A3R A3 A3R F2R B3 G2R G2 B4 end"/>
    </vehicle>
    <vehicle id="0_52" depart="1040.00">
        <route edges="start B0 D1 C1 C2 F1R F1 F1R F1 C3 C3R C3 G1 B3R F2 A2R E2R B1R B1 B2 F2 F2R B3 G1R G1 G2R A3R F2R B2R E2 E2R E2 A1R A1 A1R A1 A2 A3 G2 G2R G2 G1R C3R C3 G1 B3R F2 F2R B3 B4 B4R G2R A3R A2R E2R E2 A1R A1 A2 A2R A1R D2R B1 E1 C2 C2R C1R C1 C2 F1R F2 A3 A3R F2R B2R B2 F1 C2R C1R D1R B0R"/>
    </vehicle>
    <vehicle id="1_52" depart="1040.00">
        <route edges="B4R B3R B3 G1R G1 B3R F1 F1R F1 F1R F2 F2R F2 F2R F2 F2R B3 B3R B2R E1 C2 C3 C3R C3 C3R C2R C1R C1 C2 C3 C3R C3 G1 G1R C3R C3 G1 G2R A3R A3 A3R A3 G2 G2R A3R A3 A3R A2R A1R D2R D2 A1 A1R D2R D2 A1 E2R B2 B3 B3R B3 B4 B4R B4 end"/>
    </vehicle>
    <vehicle id="0_53" depart="1060.00">
        <route edges="start B0 D1 D1R D1 D1R B1 E1 C1R C1 C1R D1R B1 B1R B1 E1 E1R E2 E2R E1 C2 F1R F2 F2R B2R B1R D2 D2R D2 A1 A1R D2R D1 D1R B0R"/>
    </vehicle>
    <vehicle id="1_53" depart="1060.00">
        <route edges="B4R G1R G1 G1R G1 B4 end"/>
    </vehicle>
    <vehicle id="0_54" depart="1080.00">
        <route edges="start B0 D2 D2R D1 C1 C2 C3 C3R F1R B3 G1R C3R F1R B2R E2 A2 A3 A3R A2R A2 A3 A3R F2R B3 B3R B2R E1 E1R E1 C2 C2R E1R E2 A1R A1 E2R B2 B3 B4 end"/>
    </vehicle>
    <vehicle id="1_54" depart="1080.00">
        <route edges="B4R B3R B3 G2R G2 B3R F2 F2R F2 A2R A1R A1 E2R E1 C2 C2R C1R C1 E1R E1 C2 C2R E1R B2 B2R B1R D1 C1 C2 C2R C1R C1 C2 C3 G1 G2R A3R F2R B3 G1R C3R C3 G1 B3R B2R E2 E2R E1 C2 C3 G1 B4 end"/>
    </vehicle>
    <vehicle id="0_55" depart="1100.00">
        <route edges="start B0 D2 D2R D2 A1 E2R E1 C2 F1R B2R E1 C1R D1R D2 A1 A1R A1 A1R D2R B0R"/>
    </vehicle>
    <vehicle id="1_55" depart="1100.00">
        <route edges="B4R G2R A3R A2R A2 A3 A3R F2R B3 G1R C3R C3 C3R C2R C1R C1 C1R C1 E1R B1R D1 D1R B1 E2 A1R A1 A2 A3 G2 G1R G1 B3R F1 F1R F1 C2R C2 F1R B3 G1R G1 B3R F1 C3 G1 B4 B4R B4 end"/>
    </vehicle>
    <vehicle id="0_56" depart="1120.00">
        <route edges="start B0 B1 B1R D2 D2R B0R"/>
    </vehicle>
    <vehicle id="1_56" depart="1120.00">
        <route edges="B4R B3R F1 C3 G1 B3R B2R B1R B1 E1 C1R C1 C2 C3 C3R C3 G1 B4 end"/>
    </vehicle>
    <vehicle id="0_57" depart="1140.00">
        <route edges="start B0 D2 D2R D2 A1 A1R A1 A2 A3 G2 B3R B2R B1R D1 C1 C2 C3 G1 B4 end"/>
    </vehicle>
    <vehicle id="1_57" depart="1140.00">
        <route edges="B4R G1R G1 G2R A3R A2R A2 F2R F1 C2R E1R E1 E1R B1R D1 C1 C1R C1 E1R E1 C1R C1 C1R C1 C1R D1R B1 B1R B0R"/>
    </vehicle>
    <vehicle id="0_58" depart="1160.00">
        <route edges="start B0 D2 A1 E2R B2 F2 F2R B2R B1R D1 C1 E1R B2 F2 F2R F1 C2R C1R D1R D1 D1R D2 A1 A1R A1 A2 A3 G2 G1R C3R F1R B2R B2 B3 B4 end"/>
    </vehicle>
    <vehicle id="1_58" depart="1160.00">
        <route edges="B4R G1R C3R C3 C3R F1R F1 C2R C1R D1R B0R"/>
    </vehicle>
    <vehicle id="0_59" depart="1180.00">
        <route edges="start B0 B0R"/>
    </vehicle>
    <vehicle id="1_59" depart="1180.00">
        <route edges="B4R B4 end"/>
    </vehicle>
    <vehicle id="0_60" depart="1200.00">
        <route edges="start B0 B1 E1 E1R E1 C2 C2R C2 C2R E1R E1 C1R C1 E1R B1R D1 C1 C2 C3 G1 G2R G2 B3R B3 G1R C3R C2R C1R C1 C2 C2R C1R D1R B1 B2 F1 C3 C3R F1R B2R E1 E1R B2 B2R E2 A2 A2R A1R A1 A1R A1 E2R E1 E1R E2 A2 F2R F1 C2R C1R C1 C1R C1 C2 F1R B3 B3R B3 G1R G1 B4 B4R B4 end"/>
    </vehicle>
    <vehicle id="1_60" depart="1200.00">
        <route edges="B4R G1R G1 B4 end"/>
    </vehicle>
    <vehicle id="0_61" depart="1220.00">
        <route edges="start B0 B1 E2 E2R B2 F2 F2R B3 G1R C3R F1R B3 G2R A3R A3 G2 B4 B4R G2R A3R A3 G2 G2R G2 G1R G1 G1R C3R C2R E1R B1R B0R"/>
    </vehicle>
    <vehicle id="1_61" depart="1220.00">
        <route edges="B4R B3R B3 B4 B4R B3R B3 B3R B2R E2 E2R B1R D1 D1R B0R"/>
    </vehicle>
    <vehicle id="0_62" depart="1240.00">
        <route edges="start B0 B0R"/>
    </vehicle>
    <vehicle id="1_62" depart="1240.00">
        <route edges="B4R B4 B4R G1R C3R C3 G1 G2R G2 G2R G2 B3R F2 A2R A1R A1 E2R B2 B3 B3R B3 B3R B2R B2 B2R B1R D1 D1R D1 D1R D2 D2R B1 B2 B2R B2 B2R E2 A1R D2R D2 A1 E2R B1R B0R"/>
    </vehicle>
    <vehicle id="0_63" depart="1260.00">
        <route edges="start B0 B1 E2 E2R E1 C2 C2R C1R D1R D2 D2R D1 C1 C1R D1R B1 B2 B2R E2 E2R B1R D2 D2R D2 D2R B0R"/>
    </vehicle>
    <vehicle id="1_63" depart="1260.00">
        <route edges="B4R B3R B3 G2R G2 B4 end"/>
    </vehicle>
    <vehicle id="0_64" depart="1280.00">
        <route edges="start B0 D1 C1 E1R B1R D1 D1R D2 D2R B1 B1R D1 C1 C1R D1R D2 A1 E2R E1 E1R B2 B2R B2 F1 C2R E1R B1R B1 E2 A1R D2R D2 A1 A1R A1 E2R E2 E2R E1 E1R B1R B0R"/>
    </vehicle>
    <vehicle id="1_64" depart="1280.00">
        <route edges="B4R G1R G1 B3R F2 F2R B3 B4 end"/>
    </vehicle>
    <vehicle id="0_65" depart="1300.00">
        <route edges="start B0 B1 B1R B1 B2 B2R B2 B3 G1R G1 G1R C3R C3 G1 B4 B4R B3R F1 F1R B3 B4 end"/>
    </vehicle>
    <vehicle id="1_65" depart="1300.00">
        <route edges="B4R G1R G1 G1R C3R C2R C2 C2R C1R C1 E1R E1 C1R C1 E1R E1 C2 F1R B3 B3R F2 A2R A2 A2R A2 A3 A3R A3 A3R F2R F1 C2R C2 C2R C1R C1 C1R C1 C1R C1 C2 C2R C2 F1R B2R E1 C2 C2R C2 F1R F1 C3 G1 B4 B4R G2R A3R A2R A1R D2R D2 D2R B0R"/>
    </vehicle>
    <vehicle id="0_66" depart="1320.00">
        <route edges="start B0 B1 E2 E2R E2 A2 A3 A3R A2R A2 F2R F2 F2R F2 A2R A2 A2R A2 F2R B2R B1R D2 A1 E2R B1R B0R"/>
    </vehicle>
    <vehicle id="1_66" depart="1320.00">
        <route edges="B4R G1R C3R F1R B2R B2 F2 A3 G2 G1R C3R C2R C1R C1 E1R E1 E1R E1 C2 C2R C1R D1R B0R"/>
    </vehicle>
    <vehicle id="0_67" depart="1340.00">
        <route edges="start B0 D2 D2R D2 A1 A2 A3 G2 G2R G2 G2R G2 B3R F1 C3 G1 B4 end"/>
    </vehicle>
    <vehicle id="1_67" depart="1340.00">
        <route edges="B4R G1R C3R F1R F2 F2R B2R E2 E2R E1 C2 F1R B2R E1 C1R D1R D2 A1 A2 A2R A1R A1 E2R B2 B3 G1R C3R C2R C2 C2R C2 C3 C3R C3 C3R C3 G1 G2R G2 G1R G1 B3R F1 F1R B2R E1 C1R D1R B1 B1R B1 B2 F1 C3 G1 B4 end"/>
    </vehicle>
    <vehicle id="0_68" depart="1360.00">
        <route edges="start B0 B1 E1 C2 C2R C2 F1R B2R E2 A2 A2R A2 F2R F2 A3 G2 G1R C3R C2R C2 C3 C3R C2R E1R E2 A2 A2R E2R B1R D1 D1R D2 A1 A1R D2R B1 E2 A1R A1 E2R E2 E2R E2 A2 F2R F2 A3 G2 B4 B4R B3R B2R B2 B2R B2 F1 C2R E1R E2 E2R B2 F2 A3 A3R A2R A2 A3 G2 G2R A3R A3 G2 B4 B4R B4 B4R G1R G1 G2R A3R A3 A3R F2R B3 G1R G1 G1R C3R C2R E1R E2 A1R D2R B1 B2 F2 A3 A3R A3 G2 G1R G1 B3R F1 C3 G1 G2R G2 B3R F2 A2R A2 A2R E2R E1 C1R C1 C1R C1 C2 F1R B2R E2 E2R B2 B3 B3R F2 F2R B3 G2R G2 B4 end"/>
    </vehicle>
    <vehicle id="1_68" depart="1360.00">
        <route edges="B4R G1R C3R F1R B2R B1R B1 B1R D1 D1R B0R"/>
    </vehicle>
    <vehicle id="0_69" depart="1380.00">
        <route edges="start B0 D2 D2R D2 D2R D2 D2R B0R"/>
    </vehicle>
    <vehicle id="1_69" depart="1380.00">
        <route edges="B4R G1R C3R F1R B3 B3R F1 C3 G1 B4 B4R G2R A3R A2R A1R D2R D1 D1R B1 E1 C1R D1R B0R"/>
    </vehicle>
    <vehicle id="0_70" depart="1400.00">
        <route edges="start B0 D2 D2R B0R"/>
    </vehicle>
    <vehicle id="1_70" depart="1400.00">
        <route edges="B4R B3R F1 F1R F2 A2R A2 A3 G2 G1R G1 B3R F1 C3 C3R F1R F1 C3 C3R F1R F2 F2R B3 G1R C3R F1R F1 C3 G1 G2R A3R A2R A1R A1 A2 A3 A3R A3 G2 B3R B2R B1R B0R"/>
    </vehicle>
    <vehicle id="0_71" depart="1420.00">
        <route edges="start B0 B1 E1 E1R E2 A2 F2R F1 C3 C3R C3 C3R C3 C3R C3 G1 G2R A3R A2R E2R B1R D1 C1 C2 C3 G1 G1R C3R C3 G1 G2R A3R F2R F2 A3 G2 G1R C3R C2R C1R C1 E1R E1 C1R C1 C2 C3 G1 B4 B4R G2R A3R A2R A1R D2R D2 D2R B1 E2 A1R D2R B1 E2 A1R A1 E2R B1R D2 D2R D2 D2R D1 D1R D1 C1 C2 F1R B2R B1R D1 D1R D1 C1 E1R E1 C1R D1R B0R"/>
    </vehicle>
    <vehicle id="1_71" depart="1420.00">
        <route edges="B4R G2R G2 B4 end"/>
    </vehicle>
    <vehicle id="0_72" depart="1440.00">
        <route edges="start B0 B1 E1 E1R E2 E2R B2 B2R B1R B1 E2 A1R A1 A1R D2R D2 A1 A2 A2R A2 F2R F1 C3 C3R C2R C1R C1 C1R D1R D1 C1 C1R D1R D2 D2R B1 B1R D1 D1R D2 D2R B0R"/>
    </vehicle>
    <vehicle id="1_72" depart="1440.00">
        <route edges="B4R G2R A3R F2R B3 G2R A3R A2R E2R E1 E1R E1 C1R C1 C1R C1 C1R D1R B0R"/>
    </vehicle>
    <vehicle id="0_73" depart="1460.00">
        <route edges="start B0 B1 E1 C1R D1R D2 D2R B0R"/>
    </vehicle>
    <vehicle id="1_73" depart="1460.00">
        <route edges="B4R G1R G1 B3R F2 A2R A2 A3 A3R A3 G2 G2R A3R A2R E2R E2 E2R E2 E2R B1R D1 D1R B0R"/>
    </vehicle>
    <vehicle id="0_74" depart="1480.00">
        <route edges="start B0 B1 E2 A2 F2R B3 G2R G2 B4 B4R B4 end"/>
    </vehicle>
    <vehicle id="1_74" depart="1480.00">
        <route edges="B4R B3R B2R B2 F1 C3 C3R F1R F2 F2R B3 G1R G1 G2R G2 G1R G1 G1R C3R F1R F1 F1R F2 A3 G2 G2R A3R A2R A1R A1 E2R B2 F1 F1R B3 B3R B3 B3R B2R E1 C1R D1R B0R"/>
    </vehicle>
</routes>
