
<edges>

<!-- 1 fila -->
<edge id="11" from="1-1" to="1-2" type="a" />
<edge id="-11" from="1-2" to="1-1" type="a" />
<edge id="12" from="1-2" to="1-3" type="a" />
<edge id="-12" from="1-3" to="1-2" type="a" />
<edge id="13" from="1-3" to="1-4" type="a" />
<edge id="-13" from="1-4" to="1-3" type="a" />
<edge id="14" from="1-4" to="1-5" type="a" />
<edge id="-14" from="1-5" to="1-4" type="a" />
<edge id="15" from="1-5" to="1-6" type="a" />
<edge id="-15" from="1-6" to="1-5" type="a" />
<edge id="16" from="1-6" to="1-7" type="a" />
<edge id="-16" from="1-7" to="1-6" type="a" />
<edge id="17" from="1-7" to="1-8" type="a" />
<edge id="-17" from="1-8" to="1-7" type="a" />
<edge id="18" from="1-8" to="1-9" type="a" />
<edge id="-18" from="1-9" to="1-8" type="a" />
<edge id="19" from="1-9" to="1-10" type="a" />
<edge id="-19" from="1-10" to="1-9" type="a" />
<edge id="20" from="1-10" to="1-11" type="a" />
<edge id="-20" from="1-11" to="1-10" type="a" />
<edge id="21" from="1-11" to="1-12" type="a" />
<edge id="-21" from="1-12" to="1-11" type="a" />
<edge id="22" from="1-12" to="1-13" type="a" />
<edge id="-22" from="1-13" to="1-12" type="a" />
<edge id="23" from="1-13" to="1-14" type="a" />
<edge id="-23" from="1-14" to="1-13" type="a" />
<edge id="24" from="1-14" to="1-15" type="a" />
<edge id="-24" from="1-15" to="1-14" type="a" />
<edge id="25" from="1-15" to="1-16" type="a" />
<edge id="-25" from="1-16" to="1-15" type="a" />
<edge id="26" from="1-16" to="1-17" type="a" />
<edge id="-26" from="1-17" to="1-16" type="a" />
<edge id="27" from="1-17" to="1-18" type="a" />
<edge id="-27" from="1-18" to="1-17" type="a" />
<edge id="28" from="1-18" to="1-19" type="a" />
<edge id="-28" from="1-19" to="1-18" type="a" />
<edge id="29" from="1-19" to="1-20" type="a" />
<edge id="-29" from="1-20" to="1-19" type="a" />
<edge id="30" from="1-20" to="1-21" type="a" />
<edge id="-30" from="1-21" to="1-20" type="a" />

<!-- 2 fila -->
<edge id="11-2" from="2-1" to="2-2" type="a" />
<edge id="-11-2" from="2-2" to="2-1" type="a" />
<edge id="12-2" from="2-2" to="2-3" type="a" />
<edge id="-12-2" from="2-3" to="2-2" type="a" />
<edge id="13-2" from="2-3" to="2-4" type="a" />
<edge id="-13-2" from="2-4" to="2-3" type="a" />
<edge id="14-2" from="2-4" to="2-5" type="a" />
<edge id="-14-2" from="2-5" to="2-4" type="a" />
<edge id="15-2" from="2-5" to="2-6" type="a" />
<edge id="-15-2" from="2-6" to="2-5" type="a" />
<edge id="16-2" from="2-6" to="2-7" type="a" />
<edge id="-16-2" from="2-7" to="2-6" type="a" />
<edge id="17-2" from="2-7" to="2-8" type="a" />
<edge id="-17-2" from="2-8" to="2-7" type="a" />
<edge id="18-2" from="2-8" to="2-9" type="a" />
<edge id="-18-2" from="2-9" to="2-8" type="a" />
<edge id="19-2" from="2-9" to="2-10" type="a" />
<edge id="-19-2" from="2-10" to="2-9" type="a" />
<edge id="20-2" from="2-10" to="2-11" type="a" />
<edge id="-20-2" from="2-11" to="2-10" type="a" />
<edge id="21-2" from="2-11" to="2-12" type="a" />
<edge id="-21-2" from="2-12" to="2-11" type="a" />
<edge id="22-2" from="2-12" to="2-13" type="a" />
<edge id="-22-2" from="2-13" to="2-12" type="a" />
<edge id="23-2" from="2-13" to="2-14" type="a" />
<edge id="-23-2" from="2-14" to="2-13" type="a" />
<edge id="24-2" from="2-14" to="2-15" type="a" />
<edge id="-24-2" from="2-15" to="2-14" type="a" />
<edge id="25-2" from="2-15" to="2-16" type="a" />
<edge id="-25-2" from="2-16" to="2-15" type="a" />
<edge id="26-2" from="2-16" to="2-17" type="a" />
<edge id="-26-2" from="2-17" to="2-16" type="a" />
<edge id="27-2" from="2-17" to="2-18" type="a" />
<edge id="-27-2" from="2-18" to="2-17" type="a" />
<edge id="28-2" from="2-18" to="2-19" type="a" />
<edge id="-28-2" from="2-19" to="2-18" type="a" />
<edge id="29-2" from="2-19" to="2-20" type="a" />
<edge id="-29-2" from="2-20" to="2-19" type="a" />
<edge id="30-2" from="2-20" to="2-21" type="a" />
<edge id="-30-2" from="2-21" to="2-20" type="a" />


<!-- 3 fila -->
<edge id="11-3" from="3-1" to="3-2" type="a" />
<edge id="-11-3" from="3-2" to="3-1" type="a" />
<edge id="12-3" from="3-2" to="3-3" type="a" />
<edge id="-12-3" from="3-3" to="3-2" type="a" />
<edge id="13-3" from="3-3" to="3-4" type="a" />
<edge id="-13-3" from="3-4" to="3-3" type="a" />
<edge id="14-3" from="3-4" to="3-5" type="a" />
<edge id="-14-3" from="3-5" to="3-4" type="a" />
<edge id="15-3" from="3-5" to="3-6" type="a" />
<edge id="-15-3" from="3-6" to="3-5" type="a" />
<edge id="16-3" from="3-6" to="3-7" type="a" />
<edge id="-16-3" from="3-7" to="3-6" type="a" />
<edge id="17-3" from="3-7" to="3-8" type="a" />
<edge id="-17-3" from="3-8" to="3-7" type="a" />
<edge id="18-3" from="3-8" to="3-9" type="a" />
<edge id="-18-3" from="3-9" to="3-8" type="a" />
<edge id="19-3" from="3-9" to="3-10" type="a" />
<edge id="-19-3" from="3-10" to="3-9" type="a" />
<edge id="20-3" from="3-10" to="3-11" type="a" />
<edge id="-20-3" from="3-11" to="3-10" type="a" />
<edge id="21-3" from="3-11" to="3-12" type="a" />
<edge id="-21-3" from="3-12" to="3-11" type="a" />
<edge id="22-3" from="3-12" to="3-13" type="a" />
<edge id="-22-3" from="3-13" to="3-12" type="a" />
<edge id="23-3" from="3-13" to="3-14" type="a" />
<edge id="-23-3" from="3-14" to="3-13" type="a" />
<edge id="24-3" from="3-14" to="3-15" type="a" />
<edge id="-24-3" from="3-15" to="3-14" type="a" />
<edge id="25-3" from="3-15" to="3-16" type="a" />
<edge id="-25-3" from="3-16" to="3-15" type="a" />
<edge id="26-3" from="3-16" to="3-17" type="a" />
<edge id="-26-3" from="3-17" to="3-16" type="a" />
<edge id="27-3" from="3-17" to="3-18" type="a" />
<edge id="-27-3" from="3-18" to="3-17" type="a" />
<edge id="28-3" from="3-18" to="3-19" type="a" />
<edge id="-28-3" from="3-19" to="3-18" type="a" />
<edge id="29-3" from="3-19" to="3-20" type="a" />
<edge id="-29-3" from="3-20" to="3-19" type="a" />
<edge id="30-3" from="3-20" to="3-21" type="a" />
<edge id="-30-3" from="3-21" to="3-20" type="a" />

<!-- 4 fila -->
<edge id="11-4" from="4-1" to="4-2" type="a" />
<edge id="-11-4" from="4-2" to="4-1" type="a" />
<edge id="12-4" from="4-2" to="4-3" type="a" />
<edge id="-12-4" from="4-3" to="4-2" type="a" />
<edge id="13-4" from="4-3" to="4-4" type="a" />
<edge id="-13-4" from="4-4" to="4-3" type="a" />
<edge id="14-4" from="4-4" to="4-5" type="a" />
<edge id="-14-4" from="4-5" to="4-4" type="a" />
<edge id="15-4" from="4-5" to="4-6" type="a" />
<edge id="-15-4" from="4-6" to="4-5" type="a" />
<edge id="16-4" from="4-6" to="4-7" type="a" />
<edge id="-16-4" from="4-7" to="4-6" type="a" />
<edge id="17-4" from="4-7" to="4-8" type="a" />
<edge id="-17-4" from="4-8" to="4-7" type="a" />
<edge id="18-4" from="4-8" to="4-9" type="a" />
<edge id="-18-4" from="4-9" to="4-8" type="a" />
<edge id="19-4" from="4-9" to="4-10" type="a" />
<edge id="-19-4" from="4-10" to="4-9" type="a" />
<edge id="20-4" from="4-10" to="4-11" type="a" />
<edge id="-20-4" from="4-11" to="4-10" type="a" />
<edge id="21-4" from="4-11" to="4-12" type="a" />
<edge id="-21-4" from="4-12" to="4-11" type="a" />
<edge id="22-4" from="4-12" to="4-13" type="a" />
<edge id="-22-4" from="4-13" to="4-12" type="a" />
<edge id="23-4" from="4-13" to="4-14" type="a" />
<edge id="-23-4" from="4-14" to="4-13" type="a" />
<edge id="24-4" from="4-14" to="4-15" type="a" />
<edge id="-24-4" from="4-15" to="4-14" type="a" />
<edge id="25-4" from="4-15" to="4-16" type="a" />
<edge id="-25-4" from="4-16" to="4-15" type="a" />
<edge id="26-4" from="4-16" to="4-17" type="a" />
<edge id="-26-4" from="4-17" to="4-16" type="a" />
<edge id="27-4" from="4-17" to="4-18" type="a" />
<edge id="-27-4" from="4-18" to="4-17" type="a" />
<edge id="28-4" from="4-18" to="4-19" type="a" />
<edge id="-28-4" from="4-19" to="4-18" type="a" />
<edge id="29-4" from="4-19" to="4-20" type="a" />
<edge id="-29-4" from="4-20" to="4-19" type="a" />
<edge id="30-4" from="4-20" to="4-21" type="a" />
<edge id="-30-4" from="4-21" to="4-20" type="a" />

<!-- 5 fila -->
<edge id="11-5" from="5-1" to="5-2" type="a" />
<edge id="-11-5" from="5-2" to="5-1" type="a" />
<edge id="12-5" from="5-2" to="5-3" type="a" />
<edge id="-12-5" from="5-3" to="5-2" type="a" />
<edge id="13-5" from="5-3" to="5-4" type="a" />
<edge id="-13-5" from="5-4" to="5-3" type="a" />
<edge id="14-5" from="5-4" to="5-5" type="a" />
<edge id="-14-5" from="5-5" to="5-4" type="a" />
<edge id="15-5" from="5-5" to="5-6" type="a" />
<edge id="-15-5" from="5-6" to="5-5" type="a" />
<edge id="16-5" from="5-6" to="5-7" type="a" />
<edge id="-16-5" from="5-7" to="5-6" type="a" />
<edge id="17-5" from="5-7" to="5-8" type="a" />
<edge id="-17-5" from="5-8" to="5-7" type="a" />
<edge id="18-5" from="5-8" to="5-9" type="a" />
<edge id="-18-5" from="5-9" to="5-8" type="a" />
<edge id="19-5" from="5-9" to="5-10" type="a" />
<edge id="-19-5" from="5-10" to="5-9" type="a" />
<edge id="20-5" from="5-10" to="5-11" type="a" />
<edge id="-20-5" from="5-11" to="5-10" type="a" />
<edge id="21-5" from="5-11" to="5-12" type="a" />
<edge id="-21-5" from="5-12" to="5-11" type="a" />
<edge id="22-5" from="5-12" to="5-13" type="a" />
<edge id="-22-5" from="5-13" to="5-12" type="a" />
<edge id="23-5" from="5-13" to="5-14" type="a" />
<edge id="-23-5" from="5-14" to="5-13" type="a" />
<edge id="24-5" from="5-14" to="5-15" type="a" />
<edge id="-24-5" from="5-15" to="5-14" type="a" />
<edge id="25-5" from="5-15" to="5-16" type="a" />
<edge id="-25-5" from="5-16" to="5-15" type="a" />
<edge id="26-5" from="5-16" to="5-17" type="a" />
<edge id="-26-5" from="5-17" to="5-16" type="a" />
<edge id="27-5" from="5-17" to="5-18" type="a" />
<edge id="-27-5" from="5-18" to="5-17" type="a" />
<edge id="28-5" from="5-18" to="5-19" type="a" />
<edge id="-28-5" from="5-19" to="5-18" type="a" />
<edge id="29-5" from="5-19" to="5-20" type="a" />
<edge id="-29-5" from="5-20" to="5-19" type="a" />
<edge id="30-5" from="5-20" to="5-21" type="a" />
<edge id="-30-5" from="5-21" to="5-20" type="a" />

<!-- 6 fila -->
<edge id="11-6" from="6-1" to="6-2" type="a" />
<edge id="-11-6" from="6-2" to="6-1" type="a" />
<edge id="12-6" from="6-2" to="6-3" type="a" />
<edge id="-12-6" from="6-3" to="6-2" type="a" />
<edge id="13-6" from="6-3" to="6-4" type="a" />
<edge id="-13-6" from="6-4" to="6-3" type="a" />
<edge id="14-6" from="6-4" to="6-5" type="a" />
<edge id="-14-6" from="6-5" to="6-4" type="a" />
<edge id="15-6" from="6-5" to="6-6" type="a" />
<edge id="-15-6" from="6-6" to="6-5" type="a" />
<edge id="16-6" from="6-6" to="6-7" type="a" />
<edge id="-16-6" from="6-7" to="6-6" type="a" />
<edge id="17-6" from="6-7" to="6-8" type="a" />
<edge id="-17-6" from="6-8" to="6-7" type="a" />
<edge id="18-6" from="6-8" to="6-9" type="a" />
<edge id="-18-6" from="6-9" to="6-8" type="a" />
<edge id="19-6" from="6-9" to="6-10" type="a" />
<edge id="-19-6" from="6-10" to="6-9" type="a" />
<edge id="20-6" from="6-10" to="6-11" type="a" />
<edge id="-20-6" from="6-11" to="6-10" type="a" />
<edge id="21-6" from="6-11" to="6-12" type="a" />
<edge id="-21-6" from="6-12" to="6-11" type="a" />
<edge id="22-6" from="6-12" to="6-13" type="a" />
<edge id="-22-6" from="6-13" to="6-12" type="a" />
<edge id="23-6" from="6-13" to="6-14" type="a" />
<edge id="-23-6" from="6-14" to="6-13" type="a" />
<edge id="24-6" from="6-14" to="6-15" type="a" />
<edge id="-24-6" from="6-15" to="6-14" type="a" />
<edge id="25-6" from="6-15" to="6-16" type="a" />
<edge id="-25-6" from="6-16" to="6-15" type="a" />
<edge id="26-6" from="6-16" to="6-17" type="a" />
<edge id="-26-6" from="6-17" to="6-16" type="a" />
<edge id="27-6" from="6-17" to="6-18" type="a" />
<edge id="-27-6" from="6-18" to="6-17" type="a" />
<edge id="28-6" from="6-18" to="6-19" type="a" />
<edge id="-28-6" from="6-19" to="6-18" type="a" />
<edge id="29-6" from="6-19" to="6-20" type="a" />
<edge id="-29-6" from="6-20" to="6-19" type="a" />
<edge id="30-6" from="6-20" to="6-21" type="a" />
<edge id="-30-6" from="6-21" to="6-20" type="a" />

<!-- 7 fila -->
<edge id="11-7" from="7-1" to="7-2" type="a" />
<edge id="-11-7" from="7-2" to="7-1" type="a" />
<edge id="12-7" from="7-2" to="7-3" type="a" />
<edge id="-12-7" from="7-3" to="7-2" type="a" />
<edge id="13-7" from="7-3" to="7-4" type="a" />
<edge id="-13-7" from="7-4" to="7-3" type="a" />
<edge id="14-7" from="7-4" to="7-5" type="a" />
<edge id="-14-7" from="7-5" to="7-4" type="a" />
<edge id="15-7" from="7-5" to="7-6" type="a" />
<edge id="-15-7" from="7-6" to="7-5" type="a" />
<edge id="16-7" from="7-6" to="7-7" type="a" />
<edge id="-16-7" from="7-7" to="7-6" type="a" />
<edge id="17-7" from="7-7" to="7-8" type="a" />
<edge id="-17-7" from="7-8" to="7-7" type="a" />
<edge id="18-7" from="7-8" to="7-9" type="a" />
<edge id="-18-7" from="7-9" to="7-8" type="a" />
<edge id="19-7" from="7-9" to="7-10" type="a" />
<edge id="-19-7" from="7-10" to="7-9" type="a" />
<edge id="20-7" from="7-10" to="7-11" type="a" />
<edge id="-20-7" from="7-11" to="7-10" type="a" />
<edge id="21-7" from="7-11" to="7-12" type="a" />
<edge id="-21-7" from="7-12" to="7-11" type="a" />
<edge id="22-7" from="7-12" to="7-13" type="a" />
<edge id="-22-7" from="7-13" to="7-12" type="a" />
<edge id="23-7" from="7-13" to="7-14" type="a" />
<edge id="-23-7" from="7-14" to="7-13" type="a" />
<edge id="24-7" from="7-14" to="7-15" type="a" />
<edge id="-24-7" from="7-15" to="7-14" type="a" />
<edge id="25-7" from="7-15" to="7-16" type="a" />
<edge id="-25-7" from="7-16" to="7-15" type="a" />
<edge id="26-7" from="7-16" to="7-17" type="a" />
<edge id="-26-7" from="7-17" to="7-16" type="a" />
<edge id="27-7" from="7-17" to="7-18" type="a" />
<edge id="-27-7" from="7-18" to="7-17" type="a" />
<edge id="28-7" from="7-18" to="7-19" type="a" />
<edge id="-28-7" from="7-19" to="7-18" type="a" />
<edge id="29-7" from="7-19" to="7-20" type="a" />
<edge id="-29-7" from="7-20" to="7-19" type="a" />
<edge id="30-7" from="7-20" to="7-21" type="a" />
<edge id="-30-7" from="7-21" to="7-20" type="a" />

<!-- 8 fila -->
<edge id="11-8" from="8-1" to="8-2" type="a" />
<edge id="-11-8" from="8-2" to="8-1" type="a" />
<edge id="12-8" from="8-2" to="8-3" type="a" />
<edge id="-12-8" from="8-3" to="8-2" type="a" />
<edge id="13-8" from="8-3" to="8-4" type="a" />
<edge id="-13-8" from="8-4" to="8-3" type="a" />
<edge id="14-8" from="8-4" to="8-5" type="a" />
<edge id="-14-8" from="8-5" to="8-4" type="a" />
<edge id="15-8" from="8-5" to="8-6" type="a" />
<edge id="-15-8" from="8-6" to="8-5" type="a" />
<edge id="16-8" from="8-6" to="8-7" type="a" />
<edge id="-16-8" from="8-7" to="8-6" type="a" />
<edge id="17-8" from="8-7" to="8-8" type="a" />
<edge id="-17-8" from="8-8" to="8-7" type="a" />
<edge id="18-8" from="8-8" to="8-9" type="a" />
<edge id="-18-8" from="8-9" to="8-8" type="a" />
<edge id="19-8" from="8-9" to="8-10" type="a" />
<edge id="-19-8" from="8-10" to="8-9" type="a" />
<edge id="20-8" from="8-10" to="8-11" type="a" />
<edge id="-20-8" from="8-11" to="8-10" type="a" />
<edge id="21-8" from="8-11" to="8-12" type="a" />
<edge id="-21-8" from="8-12" to="8-11" type="a" />
<edge id="22-8" from="8-12" to="8-13" type="a" />
<edge id="-22-8" from="8-13" to="8-12" type="a" />
<edge id="23-8" from="8-13" to="8-14" type="a" />
<edge id="-23-8" from="8-14" to="8-13" type="a" />
<edge id="24-8" from="8-14" to="8-15" type="a" />
<edge id="-24-8" from="8-15" to="8-14" type="a" />
<edge id="25-8" from="8-15" to="8-16" type="a" />
<edge id="-25-8" from="8-16" to="8-15" type="a" />
<edge id="26-8" from="8-16" to="8-17" type="a" />
<edge id="-26-8" from="8-17" to="8-16" type="a" />
<edge id="27-8" from="8-17" to="8-18" type="a" />
<edge id="-27-8" from="8-18" to="8-17" type="a" />
<edge id="28-8" from="8-18" to="8-19" type="a" />
<edge id="-28-8" from="8-19" to="8-18" type="a" />
<edge id="29-8" from="8-19" to="8-20" type="a" />
<edge id="-29-8" from="8-20" to="8-19" type="a" />
<edge id="30-8" from="8-20" to="8-21" type="a" />
<edge id="-30-8" from="8-21" to="8-20" type="a" />

<!-- 9 fila -->
<edge id="11-9" from="9-1" to="9-2" type="a" />
<edge id="-11-9" from="9-2" to="9-1" type="a" />
<edge id="12-9" from="9-2" to="9-3" type="a" />
<edge id="-12-9" from="9-3" to="9-2" type="a" />
<edge id="13-9" from="9-3" to="9-4" type="a" />
<edge id="-13-9" from="9-4" to="9-3" type="a" />
<edge id="14-9" from="9-4" to="9-5" type="a" />
<edge id="-14-9" from="9-5" to="9-4" type="a" />
<edge id="15-9" from="9-5" to="9-6" type="a" />
<edge id="-15-9" from="9-6" to="9-5" type="a" />
<edge id="16-9" from="9-6" to="9-7" type="a" />
<edge id="-16-9" from="9-7" to="9-6" type="a" />
<edge id="17-9" from="9-7" to="9-8" type="a" />
<edge id="-17-9" from="9-8" to="9-7" type="a" />
<edge id="18-9" from="9-8" to="9-9" type="a" />
<edge id="-18-9" from="9-9" to="9-8" type="a" />
<edge id="19-9" from="9-9" to="9-10" type="a" />
<edge id="-19-9" from="9-10" to="9-9" type="a" />
<edge id="20-9" from="9-10" to="9-11" type="a" />
<edge id="-20-9" from="9-11" to="9-10" type="a" />
<edge id="21-9" from="9-11" to="9-12" type="a" />
<edge id="-21-9" from="9-12" to="9-11" type="a" />
<edge id="22-9" from="9-12" to="9-13" type="a" />
<edge id="-22-9" from="9-13" to="9-12" type="a" />
<edge id="23-9" from="9-13" to="9-14" type="a" />
<edge id="-23-9" from="9-14" to="9-13" type="a" />
<edge id="24-9" from="9-14" to="9-15" type="a" />
<edge id="-24-9" from="9-15" to="9-14" type="a" />
<edge id="25-9" from="9-15" to="9-16" type="a" />
<edge id="-25-9" from="9-16" to="9-15" type="a" />
<edge id="26-9" from="9-16" to="9-17" type="a" />
<edge id="-26-9" from="9-17" to="9-16" type="a" />
<edge id="27-9" from="9-17" to="9-18" type="a" />
<edge id="-27-9" from="9-18" to="9-17" type="a" />
<edge id="28-9" from="9-18" to="9-19" type="a" />
<edge id="-28-9" from="9-19" to="9-18" type="a" />
<edge id="29-9" from="9-19" to="9-20" type="a" />
<edge id="-29-9" from="9-20" to="9-19" type="a" />
<edge id="30-9" from="9-20" to="9-21" type="a" />
<edge id="-30-9" from="9-21" to="9-20" type="a" />

<!-- 10 fila -->
<edge id="11-10" from="10-1" to="10-2" type="a" />
<edge id="-11-10" from="10-2" to="10-1" type="a" />
<edge id="12-10" from="10-2" to="10-3" type="a" />
<edge id="-12-10" from="10-3" to="10-2" type="a" />
<edge id="13-10" from="10-3" to="10-4" type="a" />
<edge id="-13-10" from="10-4" to="10-3" type="a" />
<edge id="14-10" from="10-4" to="10-5" type="a" />
<edge id="-14-10" from="10-5" to="10-4" type="a" />
<edge id="15-10" from="10-5" to="10-6" type="a" />
<edge id="-15-10" from="10-6" to="10-5" type="a" />
<edge id="16-10" from="10-6" to="10-7" type="a" />
<edge id="-16-10" from="10-7" to="10-6" type="a" />
<edge id="17-10" from="10-7" to="10-8" type="a" />
<edge id="-17-10" from="10-8" to="10-7" type="a" />
<edge id="18-10" from="10-8" to="10-9" type="a" />
<edge id="-18-10" from="10-9" to="10-8" type="a" />
<edge id="19-10" from="10-9" to="10-10" type="a" />
<edge id="-19-10" from="10-10" to="10-9" type="a" />
<edge id="20-10" from="10-10" to="10-11" type="a" />
<edge id="-20-10" from="10-11" to="10-10" type="a" />
<edge id="21-10" from="10-11" to="10-12" type="a" />
<edge id="-21-10" from="10-12" to="10-11" type="a" />
<edge id="22-10" from="10-12" to="10-13" type="a" />
<edge id="-22-10" from="10-13" to="10-12" type="a" />
<edge id="23-10" from="10-13" to="10-14" type="a" />
<edge id="-23-10" from="10-14" to="10-13" type="a" />
<edge id="24-10" from="10-14" to="10-15" type="a" />
<edge id="-24-10" from="10-15" to="10-14" type="a" />
<edge id="25-10" from="10-15" to="10-16" type="a" />
<edge id="-25-10" from="10-16" to="10-15" type="a" />
<edge id="26-10" from="10-16" to="10-17" type="a" />
<edge id="-26-10" from="10-17" to="10-16" type="a" />
<edge id="27-10" from="10-17" to="10-18" type="a" />
<edge id="-27-10" from="10-18" to="10-17" type="a" />
<edge id="28-10" from="10-18" to="10-19" type="a" />
<edge id="-28-10" from="10-19" to="10-18" type="a" />
<edge id="29-10" from="10-19" to="10-20" type="a" />
<edge id="-29-10" from="10-20" to="10-19" type="a" />
<edge id="30-10" from="10-20" to="10-21" type="a" />
<edge id="-30-10" from="10-21" to="10-20" type="a" />

<!-- 11 fila -->
<edge id="11-11" from="11-1" to="11-2" type="a" />
<edge id="-11-11" from="11-2" to="11-1" type="a" />
<edge id="12-11" from="11-2" to="11-3" type="a" />
<edge id="-12-11" from="11-3" to="11-2" type="a" />
<edge id="13-11" from="11-3" to="11-4" type="a" />
<edge id="-13-11" from="11-4" to="11-3" type="a" />
<edge id="14-11" from="11-4" to="11-5" type="a" />
<edge id="-14-11" from="11-5" to="11-4" type="a" />
<edge id="15-11" from="11-5" to="11-6" type="a" />
<edge id="-15-11" from="11-6" to="11-5" type="a" />
<edge id="16-11" from="11-6" to="11-7" type="a" />
<edge id="-16-11" from="11-7" to="11-6" type="a" />
<edge id="17-11" from="11-7" to="11-8" type="a" />
<edge id="-17-11" from="11-8" to="11-7" type="a" />
<edge id="18-11" from="11-8" to="11-9" type="a" />
<edge id="-18-11" from="11-9" to="11-8" type="a" />
<edge id="19-11" from="11-9" to="11-10" type="a" />
<edge id="-19-11" from="11-10" to="11-9" type="a" />
<edge id="20-11" from="11-10" to="11-11" type="a" />
<edge id="-20-11" from="11-11" to="11-10" type="a" />
<edge id="21-11" from="11-11" to="11-12" type="a" />
<edge id="-21-11" from="11-12" to="11-11" type="a" />
<edge id="22-11" from="11-12" to="11-13" type="a" />
<edge id="-22-11" from="11-13" to="11-12" type="a" />
<edge id="23-11" from="11-13" to="11-14" type="a" />
<edge id="-23-11" from="11-14" to="11-13" type="a" />
<edge id="24-11" from="11-14" to="11-15" type="a" />
<edge id="-24-11" from="11-15" to="11-14" type="a" />
<edge id="25-11" from="11-15" to="11-16" type="a" />
<edge id="-25-11" from="11-16" to="11-15" type="a" />
<edge id="26-11" from="11-16" to="11-17" type="a" />
<edge id="-26-11" from="11-17" to="11-16" type="a" />
<edge id="27-11" from="11-17" to="11-18" type="a" />
<edge id="-27-11" from="11-18" to="11-17" type="a" />
<edge id="28-11" from="11-18" to="11-19" type="a" />
<edge id="-28-11" from="11-19" to="11-18" type="a" />
<edge id="29-11" from="11-19" to="11-20" type="a" />
<edge id="-29-11" from="11-20" to="11-19" type="a" />
<edge id="30-11" from="11-20" to="11-21" type="a" />
<edge id="-30-11" from="11-21" to="11-20" type="a" />

<!-- 12 fila -->
<edge id="11-12" from="12-1" to="12-2" type="a" />
<edge id="-11-12" from="12-2" to="12-1" type="a" />
<edge id="12-12" from="12-2" to="12-3" type="a" />
<edge id="-12-12" from="12-3" to="12-2" type="a" />
<edge id="13-12" from="12-3" to="12-4" type="a" />
<edge id="-13-12" from="12-4" to="12-3" type="a" />
<edge id="14-12" from="12-4" to="12-5" type="a" />
<edge id="-14-12" from="12-5" to="12-4" type="a" />
<edge id="15-12" from="12-5" to="12-6" type="a" />
<edge id="-15-12" from="12-6" to="12-5" type="a" />
<edge id="16-12" from="12-6" to="12-7" type="a" />
<edge id="-16-12" from="12-7" to="12-6" type="a" />
<edge id="17-12" from="12-7" to="12-8" type="a" />
<edge id="-17-12" from="12-8" to="12-7" type="a" />
<edge id="18-12" from="12-8" to="12-9" type="a" />
<edge id="-18-12" from="12-9" to="12-8" type="a" />
<edge id="19-12" from="12-9" to="12-10" type="a" />
<edge id="-19-12" from="12-10" to="12-9" type="a" />
<edge id="20-12" from="12-10" to="12-11" type="a" />
<edge id="-20-12" from="12-11" to="12-10" type="a" />
<edge id="21-12" from="12-11" to="12-12" type="a" />
<edge id="-21-12" from="12-12" to="12-11" type="a" />
<edge id="22-12" from="12-12" to="12-13" type="a" />
<edge id="-22-12" from="12-13" to="12-12" type="a" />
<edge id="23-12" from="12-13" to="12-14" type="a" />
<edge id="-23-12" from="12-14" to="12-13" type="a" />
<edge id="24-12" from="12-14" to="12-15" type="a" />
<edge id="-24-12" from="12-15" to="12-14" type="a" />
<edge id="25-12" from="12-15" to="12-16" type="a" />
<edge id="-25-12" from="12-16" to="12-15" type="a" />
<edge id="26-12" from="12-16" to="12-17" type="a" />
<edge id="-26-12" from="12-17" to="12-16" type="a" />
<edge id="27-12" from="12-17" to="12-18" type="a" />
<edge id="-27-12" from="12-18" to="12-17" type="a" />
<edge id="28-12" from="12-18" to="12-19" type="a" />
<edge id="-28-12" from="12-19" to="12-18" type="a" />
<edge id="29-12" from="12-19" to="12-20" type="a" />
<edge id="-29-12" from="12-20" to="12-19" type="a" />
<edge id="30-12" from="12-20" to="12-21" type="a" />
<edge id="-30-12" from="12-21" to="12-20" type="a" />

<!-- 13 fila -->
<edge id="11-13" from="13-1" to="13-2" type="a" />
<edge id="-11-13" from="13-2" to="13-1" type="a" />
<edge id="12-13" from="13-2" to="13-3" type="a" />
<edge id="-12-13" from="13-3" to="13-2" type="a" />
<edge id="13-13" from="13-3" to="13-4" type="a" />
<edge id="-13-13" from="13-4" to="13-3" type="a" />
<edge id="14-13" from="13-4" to="13-5" type="a" />
<edge id="-14-13" from="13-5" to="13-4" type="a" />
<edge id="15-13" from="13-5" to="13-6" type="a" />
<edge id="-15-13" from="13-6" to="13-5" type="a" />
<edge id="16-13" from="13-6" to="13-7" type="a" />
<edge id="-16-13" from="13-7" to="13-6" type="a" />
<edge id="17-13" from="13-7" to="13-8" type="a" />
<edge id="-17-13" from="13-8" to="13-7" type="a" />
<edge id="18-13" from="13-8" to="13-9" type="a" />
<edge id="-18-13" from="13-9" to="13-8" type="a" />
<edge id="19-13" from="13-9" to="13-10" type="a" />
<edge id="-19-13" from="13-10" to="13-9" type="a" />
<edge id="20-13" from="13-10" to="13-11" type="a" />
<edge id="-20-13" from="13-11" to="13-10" type="a" />
<edge id="21-13" from="13-11" to="13-12" type="a" />
<edge id="-21-13" from="13-12" to="13-11" type="a" />
<edge id="22-13" from="13-12" to="13-13" type="a" />
<edge id="-22-13" from="13-13" to="13-12" type="a" />
<edge id="23-13" from="13-13" to="13-14" type="a" />
<edge id="-23-13" from="13-14" to="13-13" type="a" />
<edge id="24-13" from="13-14" to="13-15" type="a" />
<edge id="-24-13" from="13-15" to="13-14" type="a" />
<edge id="25-13" from="13-15" to="13-16" type="a" />
<edge id="-25-13" from="13-16" to="13-15" type="a" />
<edge id="26-13" from="13-16" to="13-17" type="a" />
<edge id="-26-13" from="13-17" to="13-16" type="a" />
<edge id="27-13" from="13-17" to="13-18" type="a" />
<edge id="-27-13" from="13-18" to="13-17" type="a" />
<edge id="28-13" from="13-18" to="13-19" type="a" />
<edge id="-28-13" from="13-19" to="13-18" type="a" />
<edge id="29-13" from="13-19" to="13-20" type="a" />
<edge id="-29-13" from="13-20" to="13-19" type="a" />
<edge id="30-13" from="13-20" to="13-21" type="a" />
<edge id="-30-13" from="13-21" to="13-20" type="a" />

<!-- 14 fila -->
<edge id="11-14" from="14-1" to="14-2" type="a" />
<edge id="-11-14" from="14-2" to="14-1" type="a" />
<edge id="12-14" from="14-2" to="14-3" type="a" />
<edge id="-12-14" from="14-3" to="14-2" type="a" />
<edge id="13-14" from="14-3" to="14-4" type="a" />
<edge id="-13-14" from="14-4" to="14-3" type="a" />
<edge id="14-14" from="14-4" to="14-5" type="a" />
<edge id="-14-14" from="14-5" to="14-4" type="a" />
<edge id="15-14" from="14-5" to="14-6" type="a" />
<edge id="-15-14" from="14-6" to="14-5" type="a" />
<edge id="16-14" from="14-6" to="14-7" type="a" />
<edge id="-16-14" from="14-7" to="14-6" type="a" />
<edge id="17-14" from="14-7" to="14-8" type="a" />
<edge id="-17-14" from="14-8" to="14-7" type="a" />
<edge id="18-14" from="14-8" to="14-9" type="a" />
<edge id="-18-14" from="14-9" to="14-8" type="a" />
<edge id="19-14" from="14-9" to="14-10" type="a" />
<edge id="-19-14" from="14-10" to="14-9" type="a" />
<edge id="20-14" from="14-10" to="14-11" type="a" />
<edge id="-20-14" from="14-11" to="14-10" type="a" />
<edge id="21-14" from="14-11" to="14-12" type="a" />
<edge id="-21-14" from="14-12" to="14-11" type="a" />
<edge id="22-14" from="14-12" to="14-13" type="a" />
<edge id="-22-14" from="14-13" to="14-12" type="a" />
<edge id="23-14" from="14-13" to="14-14" type="a" />
<edge id="-23-14" from="14-14" to="14-13" type="a" />
<edge id="24-14" from="14-14" to="14-15" type="a" />
<edge id="-24-14" from="14-15" to="14-14" type="a" />
<edge id="25-14" from="14-15" to="14-16" type="a" />
<edge id="-25-14" from="14-16" to="14-15" type="a" />
<edge id="26-14" from="14-16" to="14-17" type="a" />
<edge id="-26-14" from="14-17" to="14-16" type="a" />
<edge id="27-14" from="14-17" to="14-18" type="a" />
<edge id="-27-14" from="14-18" to="14-17" type="a" />
<edge id="28-14" from="14-18" to="14-19" type="a" />
<edge id="-28-14" from="14-19" to="14-18" type="a" />
<edge id="29-14" from="14-19" to="14-20" type="a" />
<edge id="-29-14" from="14-20" to="14-19" type="a" />
<edge id="30-14" from="14-20" to="14-21" type="a" />
<edge id="-30-14" from="14-21" to="14-20" type="a" />
       
   <!-- 15 fila -->
<edge id="11-15" from="15-1" to="15-2" type="a" />
<edge id="-11-15" from="15-2" to="15-1" type="a" />
<edge id="12-15" from="15-2" to="15-3" type="a" />
<edge id="-12-15" from="15-3" to="15-2" type="a" />
<edge id="13-15" from="15-3" to="15-4" type="a" />
<edge id="-13-15" from="15-4" to="15-3" type="a" />
<edge id="14-15" from="15-4" to="15-5" type="a" />
<edge id="-14-15" from="15-5" to="15-4" type="a" />
<edge id="15-15" from="15-5" to="15-6" type="a" />
<edge id="-15-15" from="15-6" to="15-5" type="a" />
<edge id="16-15" from="15-6" to="15-7" type="a" />
<edge id="-16-15" from="15-7" to="15-6" type="a" />
<edge id="17-15" from="15-7" to="15-8" type="a" />
<edge id="-17-15" from="15-8" to="15-7" type="a" />
<edge id="18-15" from="15-8" to="15-9" type="a" />
<edge id="-18-15" from="15-9" to="15-8" type="a" />
<edge id="19-15" from="15-9" to="15-10" type="a" />
<edge id="-19-15" from="15-10" to="15-9" type="a" />
<edge id="20-15" from="15-10" to="15-11" type="a" />
<edge id="-20-15" from="15-11" to="15-10" type="a" />
<edge id="21-15" from="15-11" to="15-12" type="a" />
<edge id="-21-15" from="15-12" to="15-11" type="a" />
<edge id="22-15" from="15-12" to="15-13" type="a" />
<edge id="-22-15" from="15-13" to="15-12" type="a" />
<edge id="23-15" from="15-13" to="15-14" type="a" />
<edge id="-23-15" from="15-14" to="15-13" type="a" />