
<nodes>

<!-- 1 fila  (ROW-EDGE)  -->
<node id="1-1" x="100" y="100"/>
<node id="1-2" x="200" y="100"/>
<node id="1-3" x="300" y="100"/>
<node id="1-4" x="400" y="100"/>
<node id="1-5" x="500" y="100"/>
<node id="1-6" x="600" y="100"/>
<node id="1-7" x="700" y="100"/>
<node id="1-8" x="800" y="100"/>
<node id="1-9" x="900" y="100"/>
<node id="1-10" x="1000" y="100"/>
<node id="1-11" x="1100" y="100"/>
<node id="1-12" x="1200" y="100"/>
<node id="1-13" x="1300" y="100"/>
<node id="1-14" x="1400" y="100"/>
<node id="1-15" x="1500" y="100"/>
<node id="1-16" x="1600" y="100"/>
<node id="1-17" x="1700" y="100"/>
<node id="1-18" x="1800" y="100"/>
<node id="1-19" x="1900" y="100"/>
<node id="1-20" x="2000" y="100"/>
<node id="1-21" x="2100" y="100"/>

<!-- 2 fila  (ROW-EDGE)  -->
<node id="2-1" x="100" y="200"/>
<node id="2-2" x="200" y="200"/>
<node id="2-3" x="300" y="200"/>
<node id="2-4" x="400" y="200"/>
<node id="2-5" x="500" y="200"/>
<node id="2-6" x="600" y="200"/>
<node id="2-7" x="700" y="200"/>
<node id="2-8" x="800" y="200"/>
<node id="2-9" x="900" y="200"/>
<node id="2-10" x="1000" y="200"/>
<node id="2-11" x="1100" y="200"/>
<node id="2-12" x="1200" y="200"/>
<node id="2-13" x="1300" y="200"/>
<node id="2-14" x="1400" y="200"/>
<node id="2-15" x="1500" y="200"/>
<node id="2-16" x="1600" y="200"/>
<node id="2-17" x="1700" y="200"/>
<node id="2-18" x="1800" y="200"/>
<node id="2-19" x="1900" y="200"/>
<node id="2-20" x="2000" y="200"/>
<node id="2-21" x="2100" y="200"/>

<!-- 3 fila  (ROW-EDGE)  -->
<node id="3-1" x="100" y="300"/>
<node id="3-2" x="200" y="300"/>
<node id="3-3" x="300" y="300"/>
<node id="3-4" x="400" y="300"/>
<node id="3-5" x="500" y="300"/>
<node id="3-6" x="600" y="300"/>
<node id="3-7" x="700" y="300"/>
<node id="3-8" x="800" y="300"/>
<node id="3-9" x="900" y="300"/>
<node id="3-10" x="1000" y="300"/>
<node id="3-11" x="1100" y="300"/>
<node id="3-12" x="1200" y="300"/>
<node id="3-13" x="1300" y="300"/>
<node id="3-14" x="1400" y="300"/>
<node id="3-15" x="1500" y="300"/>
<node id="3-16" x="1600" y="300"/>
<node id="3-17" x="1700" y="300"/>
<node id="3-18" x="1800" y="300"/>
<node id="3-19" x="1900" y="300"/>
<node id="3-20" x="2000" y="300"/>
<node id="3-21" x="2100" y="300"/>


<!-- 4 fila  (ROW-EDGE)  -->
<node id="4-1" x="100" y="400"/>
<node id="4-2" x="200" y="400"/>
<node id="4-3" x="300" y="400"/>
<node id="4-4" x="400" y="400"/>
<node id="4-5" x="500" y="400"/>
<node id="4-6" x="600" y="400"/>
<node id="4-7" x="700" y="400"/>
<node id="4-8" x="800" y="400"/>
<node id="4-9" x="900" y="400"/>
<node id="4-10" x="1000" y="400"/>
<node id="4-11" x="1100" y="400"/>
<node id="4-12" x="1200" y="400"/>
<node id="4-13" x="1300" y="400"/>
<node id="4-14" x="1400" y="400"/>
<node id="4-15" x="1500" y="400"/>
<node id="4-16" x="1600" y="400"/>
<node id="4-17" x="1700" y="400"/>
<node id="4-18" x="1800" y="400"/>
<node id="4-19" x="1900" y="400"/>
<node id="4-20" x="2000" y="400"/>
<node id="4-21" x="2100" y="400"/>

<!-- 5 fila  (ROW-EDGE)  -->
<node id="5-1" x="100" y="500"/>
<node id="5-2" x="200" y="500"/>
<node id="5-3" x="300" y="500"/>
<node id="5-4" x="400" y="500"/>
<node id="5-5" x="500" y="500"/>
<node id="5-6" x="600" y="500"/>
<node id="5-7" x="700" y="500"/>
<node id="5-8" x="800" y="500"/>
<node id="5-9" x="900" y="500"/>
<node id="5-10" x="1000" y="500"/>
<node id="5-11" x="1100" y="500"/>
<node id="5-12" x="1200" y="500"/>
<node id="5-13" x="1300" y="500"/>
<node id="5-14" x="1400" y="500"/>
<node id="5-15" x="1500" y="500"/>
<node id="5-16" x="1600" y="500"/>
<node id="5-17" x="1700" y="500"/>
<node id="5-18" x="1800" y="500"/>
<node id="5-19" x="1900" y="500"/>
<node id="5-20" x="2000" y="500"/>
<node id="5-21" x="2100" y="500"/>

<!-- 6 fila  (ROW-EDGE)  -->
<node id="6-1" x="100" y="600"/>
<node id="6-2" x="200" y="600"/>
<node id="6-3" x="300" y="600"/>
<node id="6-4" x="400" y="600"/>
<node id="6-5" x="500" y="600"/>
<node id="6-6" x="600" y="600"/>
<node id="6-7" x="700" y="600"/>
<node id="6-8" x="800" y="600"/>
<node id="6-9" x="900" y="600"/>
<node id="6-10" x="1000" y="600"/>
<node id="6-11" x="1100" y="600"/>
<node id="6-12" x="1200" y="600"/>
<node id="6-13" x="1300" y="600"/>
<node id="6-14" x="1400" y="600"/>
<node id="6-15" x="1500" y="600"/>
<node id="6-16" x="1600" y="600"/>
<node id="6-17" x="1700" y="600"/>
<node id="6-18" x="1800" y="600"/>
<node id="6-19" x="1900" y="600"/>
<node id="6-20" x="2000" y="600"/>
<node id="6-21" x="2100" y="600"/>


<!-- 7 fila  (ROW-EDGE)  -->
<node id="7-1" x="100" y="700"/>
<node id="7-2" x="200" y="700"/>
<node id="7-3" x="300" y="700"/>
<node id="7-4" x="400" y="700"/>
<node id="7-5" x="500" y="700"/>
<node id="7-6" x="600" y="700"/>
<node id="7-7" x="700" y="700"/>
<node id="7-8" x="800" y="700"/>
<node id="7-9" x="900" y="700"/>
<node id="7-10" x="1000" y="700"/>
<node id="7-11" x="1100" y="700"/>
<node id="7-12" x="1200" y="700"/>
<node id="7-13" x="1300" y="700"/>
<node id="7-14" x="1400" y="700"/>
<node id="7-15" x="1500" y="700"/>
<node id="7-16" x="1600" y="700"/>
<node id="7-17" x="1700" y="700"/>
<node id="7-18" x="1800" y="700"/>
<node id="7-19" x="1900" y="700"/>
<node id="7-20" x="2000" y="700"/>
<node id="7-21" x="2100" y="700"/>

<!-- 8 fila  (ROW-EDGE)  -->
<node id="8-1" x="100" y="800"/>
<node id="8-2" x="200" y="800"/>
<node id="8-3" x="300" y="800"/>
<node id="8-4" x="400" y="800"/>
<node id="8-5" x="500" y="800"/>
<node id="8-6" x="600" y="800"/>
<node id="8-7" x="700" y="800"/>
<node id="8-8" x="800" y="800"/>
<node id="8-9" x="900" y="800"/>
<node id="8-10" x="1000" y="800"/>
<node id="8-11" x="1100" y="800"/>
<node id="8-12" x="1200" y="800"/>
<node id="8-13" x="1300" y="800"/>
<node id="8-14" x="1400" y="800"/>
<node id="8-15" x="1500" y="800"/>
<node id="8-16" x="1600" y="800"/>
<node id="8-17" x="1700" y="800"/>
<node id="8-18" x="1800" y="800"/>
<node id="8-19" x="1900" y="800"/>
<node id="8-20" x="2000" y="800"/>
<node id="8-21" x="2100" y="800"/>

<!-- 9 fila  (ROW-EDGE)  -->
<node id="9-1" x="100" y="900"/>
<node id="9-2" x="200" y="900"/>
<node id="9-3" x="300" y="900"/>
<node id="9-4" x="400" y="900"/>
<node id="9-5" x="500" y="900"/>
<node id="9-6" x="600" y="900"/>
<node id="9-7" x="700" y="900"/>
<node id="9-8" x="800" y="900"/>
<node id="9-9" x="900" y="900"/>
<node id="9-10" x="1000" y="900"/>
<node id="9-11" x="1100" y="900"/>
<node id="9-12" x="1200" y="900"/>
<node id="9-13" x="1300" y="900"/>
<node id="9-14" x="1400" y="900"/>
<node id="9-15" x="1500" y="900"/>
<node id="9-16" x="1600" y="900"/>
<node id="9-17" x="1700" y="900"/>
<node id="9-18" x="1800" y="900"/>
<node id="9-19" x="1900" y="900"/>
<node id="9-20" x="2000" y="900"/>
<node id="9-21" x="2100" y="900"/>

                                      
<!-- 10 fila  (ROW-EDGE)  -->
<node id="10-1" x="100" y="1000"/>
<node id="10-2" x="200" y="1000"/>
<node id="10-3" x="300" y="1000"/>
<node id="10-4" x="400" y="1000"/>
<node id="10-5" x="500" y="1000"/>
<node id="10-6" x="600" y="1000"/>
<node id="10-7" x="700" y="1000"/>
<node id="10-8" x="800" y="1000"/>
<node id="10-9" x="900" y="1000"/>
<node id="10-10" x="1000" y="1000"/>
<node id="10-11" x="1100" y="1000"/>
<node id="10-12" x="1200" y="1000"/>
<node id="10-13" x="1300" y="1000"/>
<node id="10-14" x="1400" y="1000"/>
<node id="10-15" x="1500" y="1000"/>
<node id="10-16" x="1600" y="1000"/>
<node id="10-17" x="1700" y="1000"/>
<node id="10-18" x="1800" y="1000"/>
<node id="10-19" x="1900" y="1000"/>
<node id="10-20" x="2000" y="1000"/>
<node id="10-21" x="2100" y="1000"/>

<!-- 11 fila  (ROW-EDGE)  -->
<node id="11-1" x="100" y="1100"/>
<node id="11-2" x="200" y="1100"/>
<node id="11-3" x="300" y="1100"/>
<node id="11-4" x="400" y="1100"/>
<node id="11-5" x="500" y="1100"/>
<node id="11-6" x="600" y="1100"/>
<node id="11-7" x="700" y="1100"/>
<node id="11-8" x="800" y="1100"/>
<node id="11-9" x="900" y="1100"/>
<node id="11-10" x="1000" y="1100"/>
<node id="11-11" x="1100" y="1100"/>
<node id="11-12" x="1200" y="1100"/>
<node id="11-13" x="1300" y="1100"/>
<node id="11-14" x="1400" y="1100"/>
<node id="11-15" x="1500" y="1100"/>
<node id="11-16" x="1600" y="1100"/>
<node id="11-17" x="1700" y="1100"/>
<node id="11-18" x="1800" y="1100"/>
<node id="11-19" x="1900" y="1100"/>
<node id="11-20" x="2000" y="1100"/>
<node id="11-21" x="2100" y="1100"/>

<!-- 12 fila  (ROW-EDGE)  -->
<node id="12-1" x="100" y="1200"/>
<node id="12-2" x="200" y="1200"/>
<node id="12-3" x="300" y="1200"/>
<node id="12-4" x="400" y="1200"/>
<node id="12-5" x="500" y="1200"/>
<node id="12-6" x="600" y="1200"/>
<node id="12-7" x="700" y="1200"/>
<node id="12-8" x="800" y="1200"/>
<node id="12-9" x="900" y="1200"/>
<node id="12-10" x="1000" y="1200"/>
<node id="12-11" x="1100" y="1200"/>
<node id="12-12" x="1200" y="1200"/>
<node id="12-13" x="1300" y="1200"/>
<node id="12-14" x="1400" y="1200"/>
<node id="12-15" x="1500" y="1200"/>
<node id="12-16" x="1600" y="1200"/>
<node id="12-17" x="1700" y="1200"/>
<node id="12-18" x="1800" y="1200"/>
<node id="12-19" x="1900" y="1200"/>
<node id="12-20" x="2000" y="1200"/>
<node id="12-21" x="2100" y="1200"/>

<!-- 13 fila  (ROW-EDGE)  -->
<node id="13-1" x="100" y="1300"/>
<node id="13-2" x="200" y="1300"/>
<node id="13-3" x="300" y="1300"/>
<node id="13-4" x="400" y="1300"/>
<node id="13-5" x="500" y="1300"/>
<node id="13-6" x="600" y="1300"/>
<node id="13-7" x="700" y="1300"/>
<node id="13-8" x="800" y="1300"/>
<node id="13-9" x="900" y="1300"/>
<node id="13-10" x="1000" y="1300"/>
<node id="13-11" x="1100" y="1300"/>
<node id="13-12" x="1200" y="1300"/>
<node id="13-13" x="1300" y="1300"/>
<node id="13-14" x="1400" y="1300"/>
<node id="13-15" x="1500" y="1300"/>
<node id="13-16" x="1600" y="1300"/>
<node id="13-17" x="1700" y="1300"/>
<node id="13-18" x="1800" y="1300"/>
<node id="13-19" x="1900" y="1300"/>
<node id="13-20" x="2000" y="1300"/>
<node id="13-21" x="2100" y="1300"/>

<!-- 14 fila  (ROW-EDGE)  -->
<node id="14-1" x="100" y="1400"/>
<node id="14-2" x="200" y="1400"/>
<node id="14-3" x="300" y="1400"/>
<node id="14-4" x="400" y="1400"/>
<node id="14-5" x="500" y="1400"/>
<node id="14-6" x="600" y="1400"/>
<node id="14-7" x="700" y="1400"/>
<node id="14-8" x="800" y="1400"/>
<node id="14-9" x="900" y="1400"/>
<node id="14-10" x="1000" y="1400"/>
<node id="14-11" x="1100" y="1400"/>
<node id="14-12" x="1200" y="1400"/>
<node id="14-13" x="1300" y="1400"/>
<node id="14-14" x="1400" y="1400"/>
<node id="14-15" x="1500" y="1400"/>
<node id="14-16" x="1600" y="1400"/>
<node id="14-17" x="1700" y="1400"/>
<node id="14-18" x="1800" y="1400"/>
<node id="14-19" x="1900" y="1400"/>
<node id="14-20" x="2000" y="1400"/>
<node id="14-21" x="2100" y="1400"/>

<!-- 15 fila  (ROW-EDGE)  -->
<node id="15-1" x="100" y="1500"/>
<node id="15-2" x="200" y="1500"/>
<node id="15-3" x="300" y="1500"/>
<node id="15-4" x="400" y="1500"/>
<node id="15-5" x="500" y="1500"/>
<node id="15-6" x="600" y="1500"/>
<node id="15-7" x="700" y="1500"/>
<node id="15-8" x="800" y="1500"/>
<node id="15-9" x="900" y="1500"/>
<node id="15-10" x="1000" y="1500"/>
<node id="15-11" x="1100" y="1500"/>
<node id="15-12" x="1200" y="1500"/>
<node id="15-13" x="1300" y="1500"/>
<node id="15-14" x="1400" y="1500"/>
<node id="15-15" x="1500" y="1500"/>
<node id="15-16" x="1600" y="1500"/>
<node id="15-17" x="1700" y="1500"/>
<node id="15-18" x="1800" y="1500"/>
<node id="15-19" x="1900" y="1500"/>
<node id="15-20" x="2000" y="1500"/>
<node id="15-21" x="2100" y="1500"/>

<!-- 16 fila  (ROW-EDGE)  -->
<node id="16-1" x="100" y="1600"/>
<node id="16-2" x="200" y="1600"/>
<node id="16-3" x="300" y="1600"/>
<node id="16-4" x="400" y="1600"/>
<node id="16-5" x="500" y="1600"/>
<node id="16-6" x="600" y="1600"/>
<node id="16-7" x="700" y="1600"/>
<node id="16-8" x="800" y="1600"/>
<node id="16-9" x="900" y="1600"/>
<node id="16-10" x="1000" y="1600"/>
<node id="16-11" x="1100" y="1600"/>
<node id="16-12" x="1200" y="1600"/>
<node id="16-13" x="1300" y="1600"/>
<node id="16-14" x="1400" y="1600"/>
<node id="16-15" x="1500" y="1600"/>
<node id="16-16" x="1600" y="1600"/>
<node id="16-17" x="1700" y="1600"/>
<node id="16-18" x="1800" y="1600"/>
<node id="16-19" x="1900" y="1600"/>
<node id="16-20" x="2000" y="1600"/>
<node id="16-21" x="2100" y="1600"/>

<!-- 17 fila  (ROW-EDGE)  -->
<node id="17-1" x="100" y="1700"/>
<node id="17-2" x="200" y="1700"/>
<node id="17-3" x="300" y="1700"/>
<node id="17-4" x="400" y="1700"/>
<node id="17-5" x="500" y="1700"/>
<node id="17-6" x="600" y="1700"/>
<node id="17-7" x="700" y="1700"/>
<node id="17-8" x="800" y="1700"/>
<node id="17-9" x="900" y="1700"/>
<node id="17-10" x="1000" y="1700"/>
<node id="17-11" x="1100" y="1700"/>
<node id="17-12" x="1200" y="1700"/>
<node id="17-13" x="1300" y="1700"/>
<node id="17-14" x="1400" y="1700"/>
<node id="17-15" x="1500" y="1700"/>
<node id="17-16" x="1600" y="1700"/>
<node id="17-17" x="1700" y="1700"/>
<node id="17-18" x="1800" y="1700"/>
<node id="17-19" x="1900" y="1700"/>
<node id="17-20" x="2000" y="1700"/>
<node id="17-21" x="2100" y="1700"/>

<!-- 18 fila  (ROW-EDGE)  -->
<node id="18-1" x="100" y="1800"/>
<node id="18-2" x="200" y="1800"/>
<node id="18-3" x="300" y="1800"/>
<node id="18-4" x="400" y="1800"/>
<node id="18-5" x="500" y="1800"/>
<node id="18-6" x="600" y="1800"/>
<node id="18-7" x="700" y="1800"/>
<node id="18-8" x="800" y="1800"/>
<node id="18-9" x="900" y="1800"/>
<node id="18-10" x="1000" y="1800"/>
<node id="18-11" x="1100" y="1800"/>
<node id="18-12" x="1200" y="1800"/>
<node id="18-13" x="1300" y="1800"/>
<node id="18-14" x="1400" y="1800"/>
<node id="18-15" x="1500" y="1800"/>
<node id="18-16" x="1600" y="1800"/>
<node id="18-17" x="1700" y="1800"/>
<node id="18-18" x="1800" y="1800"/>
<node id="18-19" x="1900" y="1800"/>
<node id="18-20" x="2000" y="1800"/>
<node id="18-21" x="2100" y="1800"/>

<!-- 19 fila  (ROW-EDGE)  -->
<node id="19-1" x="100" y="1900"/>
<node id="19-2" x="200" y="1900"/>
<node id="19-3" x="300" y="1900"/>
<node id="19-4" x="400" y="1900"/>
<node id="19-5" x="500" y="1900"/>
<node id="19-6" x="600" y="1900"/>
<node id="19-7" x="700" y="1900"/>
<node id="19-8" x="800" y="1900"/>
<node id="19-9" x="900" y="1900"/>
<node id="19-10" x="1000" y="1900"/>
<node id="19-11" x="1100" y="1900"/>
<node id="19-12" x="1200" y="1900"/>
<node id="19-13" x="1300" y="1900"/>
<node id="19-14" x="1400" y="1900"/>
<node id="19-15" x="1500" y="1900"/>
<node id="19-16" x="1600" y="1900"/>
<node id="19-17" x="1700" y="1900"/>
<node id="19-18" x="1800" y="1900"/>
<node id="19-19" x="1900" y="1900"/>
<node id="19-20" x="2000" y="1900"/>
<node id="19-21" x="2100" y="1900"/>

<!-- 20 fila  (ROW-EDGE)  -->
<node id="20-1" x="100" y="2000"/>
<node id="20-2" x="200" y="2000"/>
<node id="20-3" x="300" y="2000"/>
<node id="20-4" x="400" y="2000"/>
<node id="20-5" x="500" y="2000"/>
<node id="20-6" x="600" y="2000"/>
<node id="20-7" x="700" y="2000"/>
<node id="20-8" x="800" y="2000"/>
<node id="20-9" x="900" y="2000"/>
<node id="20-10" x="1000" y="2000"/>
<node id="20-11" x="1100" y="2000"/>
<node id="20-12" x="1200" y="2000"/>
<node id="20-13" x="1300" y="2000"/>
<node id="20-14" x="1400" y="2000"/>
<node id="20-15" x="1500" y="2000"/>
<node id="20-16" x="1600" y="2000"/>
<node id="20-17" x="1700" y="2000"/>
<node id="20-18" x="1800" y="2000"/>
<node id="20-19" x="1900" y="2000"/>
<node id="20-20" x="2000" y="2000"/>
<node id="20-21" x="2100" y="2000"/>

<!-- 21 fila  (ROW-EDGE)  -->
<node id="21-1" x="100" y="2100"/>
<node id="21-2" x="200" y="2100"/>
<node id="21-3" x="300" y="2100"/>
<node id="21-4" x="400" y="2100"/>
<node id="21-5" x="500" y="2100"/>
<node id="21-6" x="600" y="2100"/>
<node id="21-7" x="700" y="2100"/>
<node id="21-8" x="800" y="2100"/>
<node id="21-9" x="900" y="2100"/>
<node id="21-10" x="1000" y="2100"/>
<node id="21-11" x="1100" y="2100"/>
<node id="21-12" x="1200" y="2100"/>
<node id="21-13" x="1300" y="2100"/>
<node id="21-14" x="1400" y="2100"/>
<node id="21-15" x="1500" y="2100"/>
<node id="21-16" x="1600" y="2100"/>
<node id="21-17" x="1700" y="2100"/>
<node id="21-18" x="1800" y="2100"/>
<node id="21-19" x="1900" y="2100"/>
<node id="21-20" x="2000" y="2100"/>
<node id="21-21" x="2100" y="2100"/>



</nodes>


