[General]
cmdenv-express-mode = true
cmdenv-autoflush = true
cmdenv-status-frequency = 10000000s

tkenv-default-config = General

#tkenv-default-config = debug
#tkenv-default-run = 1
tkenv-image-path = bitmaps

ned-path = ../../../src/base;../../../src/modules;../../../examples;
network = org.mixim.examples.veins.scenarioOpp

##############################################################################
# OK, HERE I'll ADD THE SEED DATA AND NUMBER OF REPETITIONS
##############################################################################
repeat = 20 #how many repetitions. I only run 20.
seed-set = ${runnumber} #Every repetition with a uniq seed based on the run number -r.
#This is the command line instruction: 
#command line instruction: 

##########################################################
#            Simulation parameters                       #
##########################################################
debug-on-errors = true
print-undisposed = false

#sim-time-limit = 7200s #2700s #7200s
sim-time-limit = 7200s #2700s #7200s

#record-eventlog = true #this to record a log file
#**.udpapp.*.vector-recording = false #true

**.netw.*.vector-recording = false
**.appl.*.vector-recording = true
*.manager.*.vector-recording = true
**.vector-recording = false #true

**.netw.*.scalar-recording = false
**.appl.*.scalar-recording = true
**.scalar-recording = false #true

**.debug = true #false
**.coreDebug = true #false

#Defining by defaul the Cologne scenarioOpp
*.playgroundSizeX = 35000m	
*.playgroundSizeY = 40000m
*.playgroundSizeZ = 10000m
#*.playgroundSizeX = 5000m	
#*.playgroundSizeY = 5000m
#*.playgroundSizeZ = 5000m

##########################################################
# Annotation parameters                                  #
##########################################################
*.annotations.draw = false

##########################################################
# Obstacle parameters                                    #
##########################################################
*.obstacles.debug = false

##########################################################
#            WorldUtility parameters                     #
##########################################################
*.world.useTorus = false
*.world.use2D = false

##########################################################
#            TraCIscenarioOppManager parameters             #
##########################################################
*.manager.updateInterval = 1s  #OK this is Important to have the same simTime on both Omnetpp and SUMO.cfg <step-length value="0.1"/> 
*.manager.host = "localhost"
*.manager.port = 9999
*.manager.moduleType = "org.mixim.examples.veins.CarOpp"
*.manager.moduleName = "node"
*.manager.moduleDisplayString = ""
*.manager.autoShutdown = true
#*.manager.launchConfig = xmldoc("paper.launch.xml") #Using my own SUMO Network
*.manager.launchConfig = xmldoc("cologne.launch.xml") #Using my own SUMO Network
*.manager.margin = 0
#*.manager.roiRects = "0,0-3500,3500" #active messages in this rectangle.
#*.manager.margin = 25

##########################################################
#            11p specific parameters                     #
#                    NIC-Settings                        #
##########################################################
*.connectionManager.pMax = 10mW
*.connectionManager.sat = -80dBm
*.connectionManager.carrierFrequency = 5.890e9 Hz
*.connectionManager.sendDirect = false #true 
*.**.nic.mac1609_4.serviceChannel = 2
*.**.nic.mac80211p.bitrate = 18Mbps
*.**.nic.phy80211p.maxTXPower = 20mW
*.**.nic.phy80211p.useThermalNoise = true #true
*.**.nic.phy80211p.thermalNoise = -110dBm
*.**.nic.phy80211p.decider = xmldoc("config.xml")
*.**.nic.phy80211p.analogueModels = xmldoc("config.xml")
*.**.nic.phy80211p.usePropagationDelay = true #true

##*.connectionManager.alpha = 2.0 #for changing maximum transmission range
*.**.nic.mac80211p.txPower = 10mW #for changing maximum transmission range
*.**.nic.phy80211p.sensitivity = -80dBm #for changing maximum transmission range

#testing area
#OK the idea is to change the transmission range for each node:
#Using FRISS equation: http://www.moxa.com/newsletter/connection/2008/03/Figure_out_transmission_distance_from_wireless_device_specs.htm
# 15.5mW, -80dBm = 300m.
# 10mW, -80dBm = 127m.
#----------
#scenarioOpp.VPA[*].nic.mac80211p.txPower = 15.5mW#15.5mW
#scenarioOpp.VPA[*].nic.phy80211p.sensitivity= -80dBm#-80dBm
#scenarioOpp.node[*].nic.mac80211p.txPower = 10mW
#scenarioOpp.node[*].nic.phy80211p.sensitivity= -80dBm
*.connectionManager.alpha = 2.0 #2.0
**.drawMaxIntfDist = true
#testing area


##########################################################
#       Mobility Types			                         #
##########################################################
*.node[*].mobilityType = "TraCIMobility"
*.node[*].mobility.x = 0
*.node[*].mobility.y = 0
*.node[*].mobility.z = 1.895

*.VPA[*].mobilityType = "ConstSpeedMobility"
*.VPA[*].Mobility.speed = 0
*.VPA[*].Mobility.updateInterval = 0.1s
*.VPA[*].Mobility.coreDebug = false #true
*.VPA[*].Mobility.z = 1.895 #all VPAs z axis > 0

##########################################################
#    WaveAppLayer Apps for VEHICLES & VPAs               #
##########################################################
*.VPA[*].applType = "VPApOpp"
*.VPA[*].appl.debug = false
*.VPA[*].appl.dtnTestMode = true
*.VPA[*].appl.silentMode = true
#*.VPA[*].appl.headerLength = 256 bit 
*.VPA[*].appl.headerLength = 256 #OK I get rid of the measure Units.
#*.VPA[*].appl.dataOnSch = false #true= SCH, false= CCH
*.VPA[*].appl.dataOnSch = true #true= SCH, false= CCH
*.VPA[*].appl.beaconPriority = 3
*.VPA[*].appl.dataPriority = 2
#*.VPA[*].appl.sendData = true
#*.VPA[*].appl.beaconInterval = 5s
#*.VPA[*].appl.sendBeacons = true
*.VPA[*].appl.timeT= 10s#5s



*.node[*].applType = "VEHICLEpOpp"
*.node[*].appl.debug = false
*.node[*].appl.headerLength = 256 #NOTE I HAVE PROBLEMS SENDING THESE VALUES..!!!  OK I get rid of the measure Units.
*.node[*].appl.dataOnSch = false #true= SCH, false= CCH
*.node[*].appl.beaconPriority = 3
*.node[*].appl.dataPriority = 2
#*.node[*].appl.sendData= true
#*.node[*].appl.beaconInterval = 5s
#*.node[*].appl.sendBeacons = true 
*.node[*].appl.dtnTestMode = true
*.node[*].appl.dtnSynchronized = true
*.node[*].appl.dtnTestCycle = 300
*.node[*].appl.dtnTestMaxTime = 7200

#*.node[*].appl.epicenterValue= 20m#passing value of epicenter junction.
*.node[*].appl.offsetX = 4000 # extra value for X axis
*.node[*].appl.offsetY = 5000 # extra value for Y axis
*.node[*].appl.maxY = 41947 #Tama#o Max. Y axis

############### Data for the Application for APPS_CW. ###################
*.node[*].appl.timeT = 5  #100000 #5 #0.1  
*.node[*].appl.appCW = false #use APPS_CW. This value is ON always. This is to activate the MAC backoff mechanism.
*.**.nic.mac80211p.arturoBackoff = false  #Activar algorithm en Mac80211p.cc
*.node[*].appl.appMinCW = 7#500#50#25 #7 #This is my initial APP_CW window, I'm using this value to activate backoffs in Mac80211p layer

##########################################################
#       Network Layers Parameters (Including ProphetV2)  #
##########################################################
scenarioOpp.VPA[*].netw.headerLength = 2000bit
scenarioOpp.node[*].netw.headerLength = 2000bit

**.netw.PMinThreshold = 0.1

**.netw.withAck = true
###############################
#ROAD SIDE UNITS....
###############################
#Number of VPAs.
scenarioOpp.numeroNodes = 957

scenarioOpp.VPA[0].Mobility.x = 4663
scenarioOpp.VPA[0].Mobility.y = 36194
scenarioOpp.VPA[1].Mobility.x = 4468
scenarioOpp.VPA[1].Mobility.y = 35403
scenarioOpp.VPA[2].Mobility.x = 4554
scenarioOpp.VPA[2].Mobility.y = 34612
scenarioOpp.VPA[3].Mobility.x = 4343
scenarioOpp.VPA[3].Mobility.y = 33217
scenarioOpp.VPA[4].Mobility.x = 4538
scenarioOpp.VPA[4].Mobility.y = 32342
scenarioOpp.VPA[5].Mobility.x = 4557
scenarioOpp.VPA[5].Mobility.y = 31237
scenarioOpp.VPA[6].Mobility.x = 4414
scenarioOpp.VPA[6].Mobility.y = 30424
scenarioOpp.VPA[7].Mobility.x = 4568
scenarioOpp.VPA[7].Mobility.y = 29330
scenarioOpp.VPA[8].Mobility.x = 4793
scenarioOpp.VPA[8].Mobility.y = 28379
scenarioOpp.VPA[9].Mobility.x = 4554
scenarioOpp.VPA[9].Mobility.y = 27242
scenarioOpp.VPA[10].Mobility.x = 4444
scenarioOpp.VPA[10].Mobility.y = 26348
scenarioOpp.VPA[11].Mobility.x = 4611
scenarioOpp.VPA[11].Mobility.y = 25558
scenarioOpp.VPA[12].Mobility.x = 4696
scenarioOpp.VPA[12].Mobility.y = 24489
scenarioOpp.VPA[13].Mobility.x = 4591
scenarioOpp.VPA[13].Mobility.y = 23361
scenarioOpp.VPA[14].Mobility.x = 4545
scenarioOpp.VPA[14].Mobility.y = 22450
scenarioOpp.VPA[15].Mobility.x = 4640
scenarioOpp.VPA[15].Mobility.y = 21315
scenarioOpp.VPA[16].Mobility.x = 4457
scenarioOpp.VPA[16].Mobility.y = 20620
scenarioOpp.VPA[17].Mobility.x = 4139
scenarioOpp.VPA[17].Mobility.y = 19417
scenarioOpp.VPA[18].Mobility.x = 4663
scenarioOpp.VPA[18].Mobility.y = 18374
scenarioOpp.VPA[19].Mobility.x = 4785
scenarioOpp.VPA[19].Mobility.y = 17584
scenarioOpp.VPA[20].Mobility.x = 4696
scenarioOpp.VPA[20].Mobility.y = 16381
scenarioOpp.VPA[21].Mobility.x = 4847
scenarioOpp.VPA[21].Mobility.y = 15653
scenarioOpp.VPA[22].Mobility.x = 4726
scenarioOpp.VPA[22].Mobility.y = 14476
scenarioOpp.VPA[23].Mobility.x = 4801
scenarioOpp.VPA[23].Mobility.y = 13420
scenarioOpp.VPA[24].Mobility.x = 4749
scenarioOpp.VPA[24].Mobility.y = 12676
scenarioOpp.VPA[25].Mobility.x = 4772
scenarioOpp.VPA[25].Mobility.y = 11135
scenarioOpp.VPA[26].Mobility.x = 4408
scenarioOpp.VPA[26].Mobility.y = 10410
scenarioOpp.VPA[27].Mobility.x = 4940
scenarioOpp.VPA[27].Mobility.y = 9374
scenarioOpp.VPA[28].Mobility.x = 4719
scenarioOpp.VPA[28].Mobility.y = 8230
scenarioOpp.VPA[29].Mobility.x = 4814
scenarioOpp.VPA[29].Mobility.y = 7443
scenarioOpp.VPA[30].Mobility.x = 4959
scenarioOpp.VPA[30].Mobility.y = 6502
scenarioOpp.VPA[31].Mobility.x = 4820
scenarioOpp.VPA[31].Mobility.y = 4986
scenarioOpp.VPA[32].Mobility.x = 4529
scenarioOpp.VPA[32].Mobility.y = 4697
scenarioOpp.VPA[33].Mobility.x = 5331
scenarioOpp.VPA[33].Mobility.y = 36061
scenarioOpp.VPA[34].Mobility.x = 5596
scenarioOpp.VPA[34].Mobility.y = 35336
scenarioOpp.VPA[35].Mobility.x = 5246
scenarioOpp.VPA[35].Mobility.y = 34498
scenarioOpp.VPA[36].Mobility.x = 5274
scenarioOpp.VPA[36].Mobility.y = 33721
scenarioOpp.VPA[37].Mobility.x = 5092
scenarioOpp.VPA[37].Mobility.y = 32043
scenarioOpp.VPA[38].Mobility.x = 5696
scenarioOpp.VPA[38].Mobility.y = 31449
scenarioOpp.VPA[39].Mobility.x = 5288
scenarioOpp.VPA[39].Mobility.y = 30252
scenarioOpp.VPA[40].Mobility.x = 5617
scenarioOpp.VPA[40].Mobility.y = 29441
scenarioOpp.VPA[41].Mobility.x = 5381
scenarioOpp.VPA[41].Mobility.y = 28608
scenarioOpp.VPA[42].Mobility.x = 5489
scenarioOpp.VPA[42].Mobility.y = 27429
scenarioOpp.VPA[43].Mobility.x = 5421
scenarioOpp.VPA[43].Mobility.y = 26243
scenarioOpp.VPA[44].Mobility.x = 5238
scenarioOpp.VPA[44].Mobility.y = 25482
scenarioOpp.VPA[45].Mobility.x = 5814
scenarioOpp.VPA[45].Mobility.y = 24106
scenarioOpp.VPA[46].Mobility.x = 5485
scenarioOpp.VPA[46].Mobility.y = 23377
scenarioOpp.VPA[47].Mobility.x = 5242
scenarioOpp.VPA[47].Mobility.y = 22602
scenarioOpp.VPA[48].Mobility.x = 5592
scenarioOpp.VPA[48].Mobility.y = 21505
scenarioOpp.VPA[49].Mobility.x = 5306
scenarioOpp.VPA[49].Mobility.y = 20337
scenarioOpp.VPA[50].Mobility.x = 5506
scenarioOpp.VPA[50].Mobility.y = 19486
scenarioOpp.VPA[51].Mobility.x = 5589
scenarioOpp.VPA[51].Mobility.y = 18361
scenarioOpp.VPA[52].Mobility.x = 5474
scenarioOpp.VPA[52].Mobility.y = 17367
scenarioOpp.VPA[53].Mobility.x = 5317
scenarioOpp.VPA[53].Mobility.y = 16396
scenarioOpp.VPA[54].Mobility.x = 5342
scenarioOpp.VPA[54].Mobility.y = 15467
scenarioOpp.VPA[55].Mobility.x = 5299
scenarioOpp.VPA[55].Mobility.y = 14677
scenarioOpp.VPA[56].Mobility.x = 5610
scenarioOpp.VPA[56].Mobility.y = 13623
scenarioOpp.VPA[57].Mobility.x = 5406
scenarioOpp.VPA[57].Mobility.y = 12558
scenarioOpp.VPA[58].Mobility.x = 5617
scenarioOpp.VPA[58].Mobility.y = 11297
scenarioOpp.VPA[59].Mobility.x = 5467
scenarioOpp.VPA[59].Mobility.y = 10515
scenarioOpp.VPA[60].Mobility.x = 5517
scenarioOpp.VPA[60].Mobility.y = 9225
scenarioOpp.VPA[61].Mobility.x = 5267
scenarioOpp.VPA[61].Mobility.y = 8646
scenarioOpp.VPA[62].Mobility.x = 5692
scenarioOpp.VPA[62].Mobility.y = 7528
scenarioOpp.VPA[63].Mobility.x = 5621
scenarioOpp.VPA[63].Mobility.y = 6670
scenarioOpp.VPA[64].Mobility.x = 5814
scenarioOpp.VPA[64].Mobility.y = 5605
scenarioOpp.VPA[65].Mobility.x = 5360
scenarioOpp.VPA[65].Mobility.y = 4819
scenarioOpp.VPA[66].Mobility.x = 6625
scenarioOpp.VPA[66].Mobility.y = 36050
scenarioOpp.VPA[67].Mobility.x = 6706
scenarioOpp.VPA[67].Mobility.y = 35578
scenarioOpp.VPA[68].Mobility.x = 6218
scenarioOpp.VPA[68].Mobility.y = 34339
scenarioOpp.VPA[69].Mobility.x = 6325
scenarioOpp.VPA[69].Mobility.y = 33864
scenarioOpp.VPA[70].Mobility.x = 6773
scenarioOpp.VPA[70].Mobility.y = 32201
scenarioOpp.VPA[71].Mobility.x = 6353
scenarioOpp.VPA[71].Mobility.y = 31669
scenarioOpp.VPA[72].Mobility.x = 6448
scenarioOpp.VPA[72].Mobility.y = 30690
scenarioOpp.VPA[73].Mobility.x = 6163
scenarioOpp.VPA[73].Mobility.y = 29146
scenarioOpp.VPA[74].Mobility.x = 6554
scenarioOpp.VPA[74].Mobility.y = 28320
scenarioOpp.VPA[75].Mobility.x = 6560
scenarioOpp.VPA[75].Mobility.y = 27760
scenarioOpp.VPA[76].Mobility.x = 6534
scenarioOpp.VPA[76].Mobility.y = 26395
scenarioOpp.VPA[77].Mobility.x = 6857
scenarioOpp.VPA[77].Mobility.y = 25703
scenarioOpp.VPA[78].Mobility.x = 6286
scenarioOpp.VPA[78].Mobility.y = 24652
scenarioOpp.VPA[79].Mobility.x = 6308
scenarioOpp.VPA[79].Mobility.y = 23131
scenarioOpp.VPA[80].Mobility.x = 6551
scenarioOpp.VPA[80].Mobility.y = 22200
scenarioOpp.VPA[81].Mobility.x = 6564
scenarioOpp.VPA[81].Mobility.y = 21040
scenarioOpp.VPA[82].Mobility.x = 6687
scenarioOpp.VPA[82].Mobility.y = 20547
scenarioOpp.VPA[83].Mobility.x = 6493
scenarioOpp.VPA[83].Mobility.y = 19584
scenarioOpp.VPA[84].Mobility.x = 6482
scenarioOpp.VPA[84].Mobility.y = 18198
scenarioOpp.VPA[85].Mobility.x = 6689
scenarioOpp.VPA[85].Mobility.y = 17644
scenarioOpp.VPA[86].Mobility.x = 6258
scenarioOpp.VPA[86].Mobility.y = 16295
scenarioOpp.VPA[87].Mobility.x = 6689
scenarioOpp.VPA[87].Mobility.y = 15427
scenarioOpp.VPA[88].Mobility.x = 6812
scenarioOpp.VPA[88].Mobility.y = 14091
scenarioOpp.VPA[89].Mobility.x = 6478
scenarioOpp.VPA[89].Mobility.y = 13843
scenarioOpp.VPA[90].Mobility.x = 6556
scenarioOpp.VPA[90].Mobility.y = 12703
scenarioOpp.VPA[91].Mobility.x = 6726
scenarioOpp.VPA[91].Mobility.y = 11113
scenarioOpp.VPA[92].Mobility.x = 6648
scenarioOpp.VPA[92].Mobility.y = 10047
scenarioOpp.VPA[93].Mobility.x = 6230
scenarioOpp.VPA[93].Mobility.y = 9424
scenarioOpp.VPA[94].Mobility.x = 6142
scenarioOpp.VPA[94].Mobility.y = 8624
scenarioOpp.VPA[95].Mobility.x = 6433
scenarioOpp.VPA[95].Mobility.y = 7575
scenarioOpp.VPA[96].Mobility.x = 6721
scenarioOpp.VPA[96].Mobility.y = 6388
scenarioOpp.VPA[97].Mobility.x = 6499
scenarioOpp.VPA[97].Mobility.y = 5440
scenarioOpp.VPA[98].Mobility.x = 6581
scenarioOpp.VPA[98].Mobility.y = 4569
scenarioOpp.VPA[99].Mobility.x = 7828
scenarioOpp.VPA[99].Mobility.y = 36295
scenarioOpp.VPA[100].Mobility.x = 7652
scenarioOpp.VPA[100].Mobility.y = 35203
scenarioOpp.VPA[101].Mobility.x = 7710
scenarioOpp.VPA[101].Mobility.y = 34688
scenarioOpp.VPA[102].Mobility.x = 7224
scenarioOpp.VPA[102].Mobility.y = 33275
scenarioOpp.VPA[103].Mobility.x = 7633
scenarioOpp.VPA[103].Mobility.y = 32312
scenarioOpp.VPA[104].Mobility.x = 7462
scenarioOpp.VPA[104].Mobility.y = 31398
scenarioOpp.VPA[105].Mobility.x = 7250
scenarioOpp.VPA[105].Mobility.y = 29999
scenarioOpp.VPA[106].Mobility.x = 7485
scenarioOpp.VPA[106].Mobility.y = 29556
scenarioOpp.VPA[107].Mobility.x = 7207
scenarioOpp.VPA[107].Mobility.y = 28726
scenarioOpp.VPA[108].Mobility.x = 7283
scenarioOpp.VPA[108].Mobility.y = 27310
scenarioOpp.VPA[109].Mobility.x = 7660
scenarioOpp.VPA[109].Mobility.y = 26107
scenarioOpp.VPA[110].Mobility.x = 7437
scenarioOpp.VPA[110].Mobility.y = 25471
scenarioOpp.VPA[111].Mobility.x = 7593
scenarioOpp.VPA[111].Mobility.y = 24555
scenarioOpp.VPA[112].Mobility.x = 7910
scenarioOpp.VPA[112].Mobility.y = 23208
scenarioOpp.VPA[113].Mobility.x = 7934
scenarioOpp.VPA[113].Mobility.y = 22752
scenarioOpp.VPA[114].Mobility.x = 7322
scenarioOpp.VPA[114].Mobility.y = 21561
scenarioOpp.VPA[115].Mobility.x = 7269
scenarioOpp.VPA[115].Mobility.y = 20492
scenarioOpp.VPA[116].Mobility.x = 7410
scenarioOpp.VPA[116].Mobility.y = 19861
scenarioOpp.VPA[117].Mobility.x = 7328
scenarioOpp.VPA[117].Mobility.y = 18260
scenarioOpp.VPA[118].Mobility.x = 7440
scenarioOpp.VPA[118].Mobility.y = 17375
scenarioOpp.VPA[119].Mobility.x = 7246
scenarioOpp.VPA[119].Mobility.y = 16228
scenarioOpp.VPA[120].Mobility.x = 7302
scenarioOpp.VPA[120].Mobility.y = 15052
scenarioOpp.VPA[121].Mobility.x = 7567
scenarioOpp.VPA[121].Mobility.y = 14507
scenarioOpp.VPA[122].Mobility.x = 7261
scenarioOpp.VPA[122].Mobility.y = 13633
scenarioOpp.VPA[123].Mobility.x = 7765
scenarioOpp.VPA[123].Mobility.y = 12786
scenarioOpp.VPA[124].Mobility.x = 7393
scenarioOpp.VPA[124].Mobility.y = 11864
scenarioOpp.VPA[125].Mobility.x = 7690
scenarioOpp.VPA[125].Mobility.y = 10747
scenarioOpp.VPA[126].Mobility.x = 7252
scenarioOpp.VPA[126].Mobility.y = 9537
scenarioOpp.VPA[127].Mobility.x = 7771
scenarioOpp.VPA[127].Mobility.y = 8378
scenarioOpp.VPA[128].Mobility.x = 7469
scenarioOpp.VPA[128].Mobility.y = 7441
scenarioOpp.VPA[129].Mobility.x = 7235
scenarioOpp.VPA[129].Mobility.y = 6409
scenarioOpp.VPA[130].Mobility.x = 7840
scenarioOpp.VPA[130].Mobility.y = 5588
scenarioOpp.VPA[131].Mobility.x = 7354
scenarioOpp.VPA[131].Mobility.y = 4374
scenarioOpp.VPA[132].Mobility.x = 8505
scenarioOpp.VPA[132].Mobility.y = 35988
scenarioOpp.VPA[133].Mobility.x = 8208
scenarioOpp.VPA[133].Mobility.y = 35532
scenarioOpp.VPA[134].Mobility.x = 8924
scenarioOpp.VPA[134].Mobility.y = 34240
scenarioOpp.VPA[135].Mobility.x = 8268
scenarioOpp.VPA[135].Mobility.y = 33430
scenarioOpp.VPA[136].Mobility.x = 8712
scenarioOpp.VPA[136].Mobility.y = 32450
scenarioOpp.VPA[137].Mobility.x = 8584
scenarioOpp.VPA[137].Mobility.y = 31458
scenarioOpp.VPA[138].Mobility.x = 8817
scenarioOpp.VPA[138].Mobility.y = 30391
scenarioOpp.VPA[139].Mobility.x = 8839
scenarioOpp.VPA[139].Mobility.y = 29311
scenarioOpp.VPA[140].Mobility.x = 8419
scenarioOpp.VPA[140].Mobility.y = 28795
scenarioOpp.VPA[141].Mobility.x = 8243
scenarioOpp.VPA[141].Mobility.y = 27606
scenarioOpp.VPA[142].Mobility.x = 8648
scenarioOpp.VPA[142].Mobility.y = 26156
scenarioOpp.VPA[143].Mobility.x = 8478
scenarioOpp.VPA[143].Mobility.y = 25172
scenarioOpp.VPA[144].Mobility.x = 8365
scenarioOpp.VPA[144].Mobility.y = 24315
scenarioOpp.VPA[145].Mobility.x = 8737
scenarioOpp.VPA[145].Mobility.y = 23237
scenarioOpp.VPA[146].Mobility.x = 8338
scenarioOpp.VPA[146].Mobility.y = 22223
scenarioOpp.VPA[147].Mobility.x = 8090
scenarioOpp.VPA[147].Mobility.y = 21716
scenarioOpp.VPA[148].Mobility.x = 8182
scenarioOpp.VPA[148].Mobility.y = 20741
scenarioOpp.VPA[149].Mobility.x = 8144
scenarioOpp.VPA[149].Mobility.y = 19727
scenarioOpp.VPA[150].Mobility.x = 8171
scenarioOpp.VPA[150].Mobility.y = 18773
scenarioOpp.VPA[151].Mobility.x = 8845
scenarioOpp.VPA[151].Mobility.y = 17786
scenarioOpp.VPA[152].Mobility.x = 8365
scenarioOpp.VPA[152].Mobility.y = 16234
scenarioOpp.VPA[153].Mobility.x = 8656
scenarioOpp.VPA[153].Mobility.y = 15269
scenarioOpp.VPA[154].Mobility.x = 8365
scenarioOpp.VPA[154].Mobility.y = 14719
scenarioOpp.VPA[155].Mobility.x = 8548
scenarioOpp.VPA[155].Mobility.y = 13808
scenarioOpp.VPA[156].Mobility.x = 8309
scenarioOpp.VPA[156].Mobility.y = 12345
scenarioOpp.VPA[157].Mobility.x = 8241
scenarioOpp.VPA[157].Mobility.y = 11134
scenarioOpp.VPA[158].Mobility.x = 8354
scenarioOpp.VPA[158].Mobility.y = 10282
scenarioOpp.VPA[159].Mobility.x = 8586
scenarioOpp.VPA[159].Mobility.y = 9327
scenarioOpp.VPA[160].Mobility.x = 8865
scenarioOpp.VPA[160].Mobility.y = 8648
scenarioOpp.VPA[161].Mobility.x = 8379
scenarioOpp.VPA[161].Mobility.y = 7242
scenarioOpp.VPA[162].Mobility.x = 8268
scenarioOpp.VPA[162].Mobility.y = 6208
scenarioOpp.VPA[163].Mobility.x = 8261
scenarioOpp.VPA[163].Mobility.y = 5363
scenarioOpp.VPA[164].Mobility.x = 8766
scenarioOpp.VPA[164].Mobility.y = 4373
scenarioOpp.VPA[165].Mobility.x = 9488
scenarioOpp.VPA[165].Mobility.y = 36197
scenarioOpp.VPA[166].Mobility.x = 9646
scenarioOpp.VPA[166].Mobility.y = 35339
scenarioOpp.VPA[167].Mobility.x = 9596
scenarioOpp.VPA[167].Mobility.y = 34634
scenarioOpp.VPA[168].Mobility.x = 9182
scenarioOpp.VPA[168].Mobility.y = 33218
scenarioOpp.VPA[169].Mobility.x = 9438
scenarioOpp.VPA[169].Mobility.y = 32469
scenarioOpp.VPA[170].Mobility.x = 9409
scenarioOpp.VPA[170].Mobility.y = 31409
scenarioOpp.VPA[171].Mobility.x = 9453
scenarioOpp.VPA[171].Mobility.y = 30299
scenarioOpp.VPA[172].Mobility.x = 9320
scenarioOpp.VPA[172].Mobility.y = 29323
scenarioOpp.VPA[173].Mobility.x = 9473
scenarioOpp.VPA[173].Mobility.y = 28425
scenarioOpp.VPA[174].Mobility.x = 9148
scenarioOpp.VPA[174].Mobility.y = 27641
scenarioOpp.VPA[175].Mobility.x = 9512
scenarioOpp.VPA[175].Mobility.y = 26580
scenarioOpp.VPA[176].Mobility.x = 9246
scenarioOpp.VPA[176].Mobility.y = 25629
scenarioOpp.VPA[177].Mobility.x = 9552
scenarioOpp.VPA[177].Mobility.y = 24761
scenarioOpp.VPA[178].Mobility.x = 9527
scenarioOpp.VPA[178].Mobility.y = 23282
scenarioOpp.VPA[179].Mobility.x = 9813
scenarioOpp.VPA[179].Mobility.y = 22335
scenarioOpp.VPA[180].Mobility.x = 9483
scenarioOpp.VPA[180].Mobility.y = 21664
scenarioOpp.VPA[181].Mobility.x = 9389
scenarioOpp.VPA[181].Mobility.y = 20106
scenarioOpp.VPA[182].Mobility.x = 9448
scenarioOpp.VPA[182].Mobility.y = 19706
scenarioOpp.VPA[183].Mobility.x = 9636
scenarioOpp.VPA[183].Mobility.y = 18853
scenarioOpp.VPA[184].Mobility.x = 9389
scenarioOpp.VPA[184].Mobility.y = 17462
scenarioOpp.VPA[185].Mobility.x = 9936
scenarioOpp.VPA[185].Mobility.y = 16055
scenarioOpp.VPA[186].Mobility.x = 9560
scenarioOpp.VPA[186].Mobility.y = 15760
scenarioOpp.VPA[187].Mobility.x = 9068
scenarioOpp.VPA[187].Mobility.y = 14331
scenarioOpp.VPA[188].Mobility.x = 9470
scenarioOpp.VPA[188].Mobility.y = 13460
scenarioOpp.VPA[189].Mobility.x = 9466
scenarioOpp.VPA[189].Mobility.y = 12400
scenarioOpp.VPA[190].Mobility.x = 9289
scenarioOpp.VPA[190].Mobility.y = 11726
scenarioOpp.VPA[191].Mobility.x = 9616
scenarioOpp.VPA[191].Mobility.y = 10271
scenarioOpp.VPA[192].Mobility.x = 9347
scenarioOpp.VPA[192].Mobility.y = 9244
scenarioOpp.VPA[193].Mobility.x = 9450
scenarioOpp.VPA[193].Mobility.y = 8824
scenarioOpp.VPA[194].Mobility.x = 9505
scenarioOpp.VPA[194].Mobility.y = 7831
scenarioOpp.VPA[195].Mobility.x = 9730
scenarioOpp.VPA[195].Mobility.y = 6551
scenarioOpp.VPA[196].Mobility.x = 9749
scenarioOpp.VPA[196].Mobility.y = 5227
scenarioOpp.VPA[197].Mobility.x = 9553
scenarioOpp.VPA[197].Mobility.y = 4449
scenarioOpp.VPA[198].Mobility.x = 10620
scenarioOpp.VPA[198].Mobility.y = 36298
scenarioOpp.VPA[199].Mobility.x = 10767
scenarioOpp.VPA[199].Mobility.y = 35207
scenarioOpp.VPA[200].Mobility.x = 10829
scenarioOpp.VPA[200].Mobility.y = 34727
scenarioOpp.VPA[201].Mobility.x = 10659
scenarioOpp.VPA[201].Mobility.y = 33670
scenarioOpp.VPA[202].Mobility.x = 10524
scenarioOpp.VPA[202].Mobility.y = 32314
scenarioOpp.VPA[203].Mobility.x = 10326
scenarioOpp.VPA[203].Mobility.y = 31416
scenarioOpp.VPA[204].Mobility.x = 10377
scenarioOpp.VPA[204].Mobility.y = 30071
scenarioOpp.VPA[205].Mobility.x = 10405
scenarioOpp.VPA[205].Mobility.y = 29506
scenarioOpp.VPA[206].Mobility.x = 10399
scenarioOpp.VPA[206].Mobility.y = 28262
scenarioOpp.VPA[207].Mobility.x = 10620
scenarioOpp.VPA[207].Mobility.y = 27358
scenarioOpp.VPA[208].Mobility.x = 10366
scenarioOpp.VPA[208].Mobility.y = 26482
scenarioOpp.VPA[209].Mobility.x = 10789
scenarioOpp.VPA[209].Mobility.y = 25279
scenarioOpp.VPA[210].Mobility.x = 10755
scenarioOpp.VPA[210].Mobility.y = 24781
scenarioOpp.VPA[211].Mobility.x = 10298
scenarioOpp.VPA[211].Mobility.y = 23318
scenarioOpp.VPA[212].Mobility.x = 10202
scenarioOpp.VPA[212].Mobility.y = 22753
scenarioOpp.VPA[213].Mobility.x = 10405
scenarioOpp.VPA[213].Mobility.y = 21334
scenarioOpp.VPA[214].Mobility.x = 10580
scenarioOpp.VPA[214].Mobility.y = 20357
scenarioOpp.VPA[215].Mobility.x = 10812
scenarioOpp.VPA[215].Mobility.y = 19842
scenarioOpp.VPA[216].Mobility.x = 10614
scenarioOpp.VPA[216].Mobility.y = 18215
scenarioOpp.VPA[217].Mobility.x = 10309
scenarioOpp.VPA[217].Mobility.y = 17057
scenarioOpp.VPA[218].Mobility.x = 10761
scenarioOpp.VPA[218].Mobility.y = 16390
scenarioOpp.VPA[219].Mobility.x = 10445
scenarioOpp.VPA[219].Mobility.y = 15277
scenarioOpp.VPA[220].Mobility.x = 10744
scenarioOpp.VPA[220].Mobility.y = 14192
scenarioOpp.VPA[221].Mobility.x = 10880
scenarioOpp.VPA[221].Mobility.y = 13773
scenarioOpp.VPA[222].Mobility.x = 10507
scenarioOpp.VPA[222].Mobility.y = 12621
scenarioOpp.VPA[223].Mobility.x = 10341
scenarioOpp.VPA[223].Mobility.y = 11754
scenarioOpp.VPA[224].Mobility.x = 10677
scenarioOpp.VPA[224].Mobility.y = 10134
scenarioOpp.VPA[225].Mobility.x = 10337
scenarioOpp.VPA[225].Mobility.y = 9756
scenarioOpp.VPA[226].Mobility.x = 10828
scenarioOpp.VPA[226].Mobility.y = 8441
scenarioOpp.VPA[227].Mobility.x = 10744
scenarioOpp.VPA[227].Mobility.y = 7241
scenarioOpp.VPA[228].Mobility.x = 10541
scenarioOpp.VPA[228].Mobility.y = 6292
scenarioOpp.VPA[229].Mobility.x = 10829
scenarioOpp.VPA[229].Mobility.y = 5467
scenarioOpp.VPA[230].Mobility.x = 10128
scenarioOpp.VPA[230].Mobility.y = 4467
scenarioOpp.VPA[231].Mobility.x = 11319
scenarioOpp.VPA[231].Mobility.y = 36223
scenarioOpp.VPA[232].Mobility.x = 11174
scenarioOpp.VPA[232].Mobility.y = 35091
scenarioOpp.VPA[233].Mobility.x = 11268
scenarioOpp.VPA[233].Mobility.y = 34670
scenarioOpp.VPA[234].Mobility.x = 11251
scenarioOpp.VPA[234].Mobility.y = 33671
scenarioOpp.VPA[235].Mobility.x = 11329
scenarioOpp.VPA[235].Mobility.y = 32767
scenarioOpp.VPA[236].Mobility.x = 11199
scenarioOpp.VPA[236].Mobility.y = 31759
scenarioOpp.VPA[237].Mobility.x = 11501
scenarioOpp.VPA[237].Mobility.y = 30571
scenarioOpp.VPA[238].Mobility.x = 11647
scenarioOpp.VPA[238].Mobility.y = 29313
scenarioOpp.VPA[239].Mobility.x = 11501
scenarioOpp.VPA[239].Mobility.y = 28331
scenarioOpp.VPA[240].Mobility.x = 11622
scenarioOpp.VPA[240].Mobility.y = 27418
scenarioOpp.VPA[241].Mobility.x = 11619
scenarioOpp.VPA[241].Mobility.y = 26331
scenarioOpp.VPA[242].Mobility.x = 11389
scenarioOpp.VPA[242].Mobility.y = 25300
scenarioOpp.VPA[243].Mobility.x = 11544
scenarioOpp.VPA[243].Mobility.y = 24602
scenarioOpp.VPA[244].Mobility.x = 11475
scenarioOpp.VPA[244].Mobility.y = 23396
scenarioOpp.VPA[245].Mobility.x = 11636
scenarioOpp.VPA[245].Mobility.y = 22449
scenarioOpp.VPA[246].Mobility.x = 11751
scenarioOpp.VPA[246].Mobility.y = 21243
scenarioOpp.VPA[247].Mobility.x = 11355
scenarioOpp.VPA[247].Mobility.y = 20602
scenarioOpp.VPA[248].Mobility.x = 11845
scenarioOpp.VPA[248].Mobility.y = 19073
scenarioOpp.VPA[249].Mobility.x = 11682
scenarioOpp.VPA[249].Mobility.y = 18409
scenarioOpp.VPA[250].Mobility.x = 11355
scenarioOpp.VPA[250].Mobility.y = 17169
scenarioOpp.VPA[251].Mobility.x = 11062
scenarioOpp.VPA[251].Mobility.y = 16704
scenarioOpp.VPA[252].Mobility.x = 11475
scenarioOpp.VPA[252].Mobility.y = 15412
scenarioOpp.VPA[253].Mobility.x = 11518
scenarioOpp.VPA[253].Mobility.y = 14318
scenarioOpp.VPA[254].Mobility.x = 11492
scenarioOpp.VPA[254].Mobility.y = 13552
scenarioOpp.VPA[255].Mobility.x = 11346
scenarioOpp.VPA[255].Mobility.y = 12466
scenarioOpp.VPA[256].Mobility.x = 11699
scenarioOpp.VPA[256].Mobility.y = 11631
scenarioOpp.VPA[257].Mobility.x = 11432
scenarioOpp.VPA[257].Mobility.y = 10218
scenarioOpp.VPA[258].Mobility.x = 11303
scenarioOpp.VPA[258].Mobility.y = 9254
scenarioOpp.VPA[259].Mobility.x = 11118
scenarioOpp.VPA[259].Mobility.y = 8368
scenarioOpp.VPA[260].Mobility.x = 11165
scenarioOpp.VPA[260].Mobility.y = 7454
scenarioOpp.VPA[261].Mobility.x = 11441
scenarioOpp.VPA[261].Mobility.y = 6369
scenarioOpp.VPA[262].Mobility.x = 11570
scenarioOpp.VPA[262].Mobility.y = 5412
scenarioOpp.VPA[263].Mobility.x = 11604
scenarioOpp.VPA[263].Mobility.y = 4646
scenarioOpp.VPA[264].Mobility.x = 12526
scenarioOpp.VPA[264].Mobility.y = 36287
scenarioOpp.VPA[265].Mobility.x = 12703
scenarioOpp.VPA[265].Mobility.y = 35429
scenarioOpp.VPA[266].Mobility.x = 12511
scenarioOpp.VPA[266].Mobility.y = 34741
scenarioOpp.VPA[267].Mobility.x = 12366
scenarioOpp.VPA[267].Mobility.y = 33401
scenarioOpp.VPA[268].Mobility.x = 12837
scenarioOpp.VPA[268].Mobility.y = 32435
scenarioOpp.VPA[269].Mobility.x = 12294
scenarioOpp.VPA[269].Mobility.y = 31433
scenarioOpp.VPA[270].Mobility.x = 12282
scenarioOpp.VPA[270].Mobility.y = 30111
scenarioOpp.VPA[271].Mobility.x = 12885
scenarioOpp.VPA[271].Mobility.y = 28994
scenarioOpp.VPA[272].Mobility.x = 12759
scenarioOpp.VPA[272].Mobility.y = 28293
scenarioOpp.VPA[273].Mobility.x = 12451
scenarioOpp.VPA[273].Mobility.y = 27116
scenarioOpp.VPA[274].Mobility.x = 12729
scenarioOpp.VPA[274].Mobility.y = 26705
scenarioOpp.VPA[275].Mobility.x = 12481
scenarioOpp.VPA[275].Mobility.y = 25311
scenarioOpp.VPA[276].Mobility.x = 12173
scenarioOpp.VPA[276].Mobility.y = 24417
scenarioOpp.VPA[277].Mobility.x = 12083
scenarioOpp.VPA[277].Mobility.y = 23439
scenarioOpp.VPA[278].Mobility.x = 12396
scenarioOpp.VPA[278].Mobility.y = 22564
scenarioOpp.VPA[279].Mobility.x = 12227
scenarioOpp.VPA[279].Mobility.y = 21501
scenarioOpp.VPA[280].Mobility.x = 12415
scenarioOpp.VPA[280].Mobility.y = 20336
scenarioOpp.VPA[281].Mobility.x = 12873
scenarioOpp.VPA[281].Mobility.y = 19762
scenarioOpp.VPA[282].Mobility.x = 12758
scenarioOpp.VPA[282].Mobility.y = 18433
scenarioOpp.VPA[283].Mobility.x = 12596
scenarioOpp.VPA[283].Mobility.y = 17021
scenarioOpp.VPA[284].Mobility.x = 12517
scenarioOpp.VPA[284].Mobility.y = 16436
scenarioOpp.VPA[285].Mobility.x = 12469
scenarioOpp.VPA[285].Mobility.y = 15542