<?xml version="1.0"?>

<!-- generated on Sat Aug  1 00:53:52 2015 by SUMO duarouter Version 0.13.1
<?xml version="1.0" encoding="iso-8859-1"?>

<configuration xmlns:xsi="http://www.w3.org/2001/XMLSchema-instance" xsi:noNamespaceSchemaLocation="http://sumo.sf.net/xsd/duarouterConfiguration.xsd">

    <input>
        <net-file value="grid_9x9.net.xml"/>
        <alternative-files value="trips_8.rou.alt.xml"/>
        <weight-files value="dump_8_900.xml"/>
    </input>

    <output>
        <output-file value="trips_9.rou.xml"/>
        <exit-times value="false"/>
    </output>

    <processing>
        <ignore-errors value="false"/>
        <with-taz value="false"/>
        <gawron.beta value="0.9"/>
        <gawron.a value="0.5"/>
        <keep-all-routes value="false"/>
    </processing>

    <time>
        <begin value="0"/>
    </time>

    <report>
        <verbose value="true"/>
        <no-warnings value="false"/>
    </report>

    <random_number>
        <random value="false"/>
    </random_number>

</configuration>
-->

<routes xmlns:xsi="http://www.w3.org/2001/XMLSchema-instance" xsi:noNamespaceSchemaLocation="http://sumo.sf.net/xsd/routes_file.xsd">
    <vehicle id="1" depart="0.00" repno="12" period="600.00">
        <route edges="9/0to9/1 9/1to9/2 9/2to9/3 9/3to9/4 9/4to9/5 9/5to9/6 9/6to9/7 9/7to9/8 9/8to9/9 9/9to9/10 9/10to9/11 9/11to9/10"/>
    </vehicle>
    <vehicle id="2" depart="10.00" repno="12" period="600.00">
        <route edges="9/11to9/10 9/10to8/10 8/10to7/10 7/10to7/9 7/9to6/9 6/9to5/9 5/9to4/9 4/9to3/9 3/9to2/9 2/9to1/9 1/9to0/9 0/9to1/9"/>
    </vehicle>
    <vehicle id="3" depart="20.00" repno="12" period="600.00">
        <route edges="9/11to9/10 9/10to8/10 8/10to7/10 7/10to6/10 6/10to5/10 5/10to4/10 4/10to3/10 3/10to2/10 2/10to2/9 2/9to1/9 1/9to1/8 1/8to1/7 1/7to1/6 1/6to1/5 1/5to1/4 1/4to1/3 1/3to1/2 1/2to0/2 0/2to1/2"/>
    </vehicle>
    <vehicle id="4" depart="30.00" repno="12" period="600.00">
        <route edges="0/9to1/9 1/9to1/10 1/10to2/10 2/10to3/10 3/10to4/10 4/10to5/10 5/10to6/10 6/10to7/10 7/10to7/11 7/11to7/10"/>
    </vehicle>
    <vehicle id="5" depart="40.00" repno="12" period="600.00">
        <route edges="9/0to9/1 9/1to9/2 9/2to8/2 8/2to7/2 7/2to6/2 6/2to6/3 6/3to6/4 6/4to6/5 6/5to5/5 5/5to4/5 4/5to3/5 3/5to2/5 2/5to2/6 2/6to2/7 2/7to2/8 2/8to2/9 2/9to1/9 1/9to0/9 0/9to1/9"/>
    </vehicle>
    <vehicle id="6" depart="50.00" repno="12" period="600.00">
        <route edges="11/3to10/3 10/3to9/3 9/3to8/3 8/3to7/3 7/3to7/2 7/2to7/1 7/1to7/0 7/0to7/1"/>
    </vehicle>
    <vehicle id="7" depart="60.00" repno="12" period="600.00">
        <route edges="2/0to2/1 2/1to1/1 1/1to1/2 1/2to1/3 1/3to1/4 1/4to1/5 1/5to1/6 1/6to1/7 1/7to0/7 0/7to1/7"/>
    </vehicle>
    <vehicle id="8" depart="70.00" repno="12" period="600.00">
        <route edges="11/9to10/9 10/9to9/9 9/9to8/9 8/9to7/9 7/9to7/10 7/10to7/11 7/11to7/10"/>
    </vehicle>
    <vehicle id="9" depart="80.00" repno="12" period="600.00">
        <route edges="11/9to10/9 10/9to10/10 10/10to9/10 9/10to8/10 8/10to7/10 7/10to6/10 6/10to5/10 5/10to5/11 5/11to5/10"/>
    </vehicle>
    <vehicle id="10" depart="90.00" repno="12" period="600.00">
        <route edges="9/11to9/10 9/10to8/10 8/10to7/10 7/10to6/10 6/10to5/10 5/10to4/10 4/10to3/10 3/10to3/11 3/11to3/10"/>
    </vehicle>
    <vehicle id="11" depart="100.00" repno="12" period="600.00">
        <route edges="7/0to7/1 7/1to6/1 6/1to5/1 5/1to4/1 4/1to3/1 3/1to2/1 2/1to2/2 2/2to1/2 1/2to1/3 1/3to1/4 1/4to1/5 1/5to1/6 1/6to1/7 1/7to0/7 0/7to1/7"/>
    </vehicle>
    <vehicle id="12" depart="110.00" repno="12" period="600.00">
        <route edges="5/0to5/1 5/1to4/1 4/1to3/1 3/1to2/1 2/1to2/0 2/0to2/1"/>
    </vehicle>
    <vehicle id="13" depart="120.00" repno="12" period="600.00">
        <route edges="0/2to1/2 1/2to1/3 1/3to1/4 1/4to1/5 1/5to1/6 1/6to1/7 1/7to0/7 0/7to1/7"/>
    </vehicle>
    <vehicle id="14" depart="130.00" repno="12" period="600.00">
        <route edges="3/11to3/10 3/10to3/9 3/9to3/8 3/8to3/7 3/7to3/6 3/6to2/6 2/6to2/5 2/5to2/4 2/4to2/3 2/3to2/2 2/2to2/1 2/1to2/0 2/0to2/1"/>
    </vehicle>
    <vehicle id="15" depart="140.00" repno="12" period="600.00">
        <route edges="9/0to9/1 9/1to8/1 8/1to7/1 7/1to6/1 6/1to5/1 5/1to4/1 4/1to3/1 3/1to2/1 2/1to2/0 2/0to2/1"/>
    </vehicle>
    <vehicle id="16" depart="150.00" repno="12" period="600.00">
        <route edges="9/11to9/10 9/10to9/9 9/9to10/9 10/9to11/9 11/9to10/9"/>
    </vehicle>
    <vehicle id="17" depart="160.00" repno="12" period="600.00">
        <route edges="0/9to1/9 1/9to1/8 1/8to1/7 1/7to1/6 1/6to1/5 1/5to1/4 1/4to1/3 1/3to1/2 1/2to2/2 2/2to2/1 2/1to3/1 3/1to4/1 4/1to5/1 5/1to6/1 6/1to7/1 7/1to7/0 7/0to7/1"/>
    </vehicle>
    <vehicle id="18" depart="170.00" repno="12" period="600.00">
        <route edges="3/11to3/10 3/10to3/9 3/9to3/8 3/8to3/7 3/7to3/6 3/6to3/5 3/5to3/4 3/4to3/3 3/3to3/2 3/2to4/2 4/2to4/1 4/1to5/1 5/1to5/0 5/0to5/1"/>
    </vehicle>
    <vehicle id="19" depart="180.00" repno="12" period="600.00">
        <route edges="0/5to1/5 1/5to1/6 1/6to2/6 2/6to3/6 3/6to4/6 4/6to4/7 4/7to4/8 4/8to4/9 4/9to4/10 4/10to5/10 5/10to5/11 5/11to5/10"/>
    </vehicle>
    <vehicle id="20" depart="190.00" repno="12" period="600.00">
        <route edges="0/5to1/5 1/5to2/5 2/5to2/4 2/4to3/4 3/4to4/4 4/4to5/4 5/4to6/4 6/4to7/4 7/4to8/4 8/4to9/4 9/4to9/3 9/3to10/3 10/3to11/3 11/3to10/3"/>
    </vehicle>
    <vehicle id="21" depart="200.00" repno="12" period="600.00">
        <route edges="11/7to10/7 10/7to9/7 9/7to8/7 8/7to7/7 7/7to6/7 6/7to5/7 5/7to4/7 4/7to3/7 3/7to2/7 2/7to1/7 1/7to1/6 1/6to1/5 1/5to0/5 0/5to1/5"/>
    </vehicle>
    <vehicle id="22" depart="210.00" repno="12" period="600.00">
        <route edges="11/3to10/3 10/3to9/3 9/3to9/4 9/4to9/5 9/5to8/5 8/5to8/6 8/6to7/6 7/6to7/7 7/7to7/8 7/8to7/9 7/9to7/10 7/10to7/11 7/11to7/10"/>
    </vehicle>
    <vehicle id="23" depart="220.00" repno="12" period="600.00">
        <route edges="7/0to7/1 7/1to6/1 6/1to5/1 5/1to4/1 4/1to3/1 3/1to2/1 2/1to2/0 2/0to2/1"/>
    </vehicle>
    <vehicle id="24" depart="230.00" repno="12" period="600.00">
        <route edges="11/5to10/5 10/5to9/5 9/5to8/5 8/5to8/6 8/6to7/6 7/6to7/7 7/7to7/8 7/8to7/9 7/9to7/10 7/10to7/11 7/11to7/10"/>
    </vehicle>
    <vehicle id="25" depart="240.00" repno="12" period="600.00">
        <route edges="5/0to5/1 5/1to5/2 5/2to5/3 5/3to5/4 5/4to4/4 4/4to3/4 3/4to2/4 2/4to2/5 2/5to2/6 2/6to2/7 2/7to1/7 1/7to1/8 1/8to1/9 1/9to0/9 0/9to1/9"/>
    </vehicle>
    <vehicle id="26" depart="250.00" repno="12" period="600.00">
        <route edges="5/11to5/10 5/10to6/10 6/10to7/10 7/10to7/11 7/11to7/10"/>
    </vehicle>
    <vehicle id="27" depart="260.00" repno="12" period="600.00">
        <route edges="9/11to9/10 9/10to8/10 8/10to7/10 7/10to6/10 6/10to5/10 5/10to4/10 4/10to4/9 4/9to4/8 4/8to3/8 3/8to2/8 2/8to2/7 2/7to2/6 2/6to2/5 2/5to1/5 1/5to0/5 0/5to1/5"/>
    </vehicle>
    <vehicle id="28" depart="270.00" repno="12" period="600.00">
        <route edges="9/11to9/10 9/10to9/9 9/9to9/8 9/8to9/7 9/7to9/6 9/6to9/5 9/5to10/5 10/5to11/5 11/5to10/5"/>
    </vehicle>
    <vehicle id="29" depart="280.00" repno="12" period="600.00">
        <route edges="0/2to1/2 1/2to1/3 1/3to1/4 1/4to1/5 1/5to1/6 1/6to1/7 1/7to2/7 2/7to3/7 3/7to4/7 4/7to5/7 5/7to6/7 6/7to7/7 7/7to7/8 7/8to7/9 7/9to7/10 7/10to7/11 7/11to7/10"/>
    </vehicle>
    <vehicle id="30" depart="290.00" repno="12" period="600.00">
        <route edges="0/7to1/7 1/7to2/7 2/7to3/7 3/7to4/7 4/7to5/7 5/7to5/6 5/6to5/5 5/5to5/4 5/4to6/4 6/4to7/4 7/4to8/4 8/4to9/4 9/4to10/4 10/4to10/3 10/3to11/3 11/3to10/3"/>
    </vehicle>
    <vehicle id="31" depart="300.00" repno="12" period="600.00">
        <route edges="9/0to9/1 9/1to8/1 8/1to7/1 7/1to6/1 6/1to5/1 5/1to4/1 4/1to3/1 3/1to2/1 2/1to2/2 2/2to1/2 1/2to0/2 0/2to1/2"/>
    </vehicle>
    <vehicle id="32" depart="310.00" repno="12" period="600.00">
        <route edges="11/7to10/7 10/7to10/8 10/8to9/8 9/8to8/8 8/8to8/9 8/9to7/9 7/9to6/9 6/9to5/9 5/9to4/9 4/9to3/9 3/9to2/9 2/9to1/9 1/9to0/9 0/9to1/9"/>
    </vehicle>
    <vehicle id="33" depart="320.00" repno="12" period="600.00">
        <route edges="3/11to3/10 3/10to2/10 2/10to2/9 2/9to2/8 2/8to2/7 2/7to2/6 2/6to1/6 1/6to1/5 1/5to0/5 0/5to1/5"/>
    </vehicle>
    <vehicle id="34" depart="330.00" repno="12" period="600.00">
        <route edges="7/11to7/10 7/10to6/10 6/10to5/10 5/10to5/11 5/11to5/10"/>
    </vehicle>
    <vehicle id="35" depart="340.00" repno="12" period="600.00">
        <route edges="9/0to9/1 9/1to9/2 9/2to8/2 8/2to8/3 8/3to8/4 8/4to7/4 7/4to7/5 7/5to7/6 7/6to7/7 7/7to7/8 7/8to7/9 7/9to7/10 7/10to7/11 7/11to7/10"/>
    </vehicle>
    <vehicle id="36" depart="350.00" repno="12" period="600.00">
        <route edges="7/0to7/1 7/1to6/1 6/1to5/1 5/1to4/1 4/1to3/1 3/1to2/1 2/1to2/2 2/2to1/2 1/2to1/3 1/3to1/4 1/4to1/5 1/5to0/5 0/5to1/5"/>
    </vehicle>
    <vehicle id="37" depart="360.00" repno="12" period="600.00">
        <route edges="2/0to2/1 2/1to1/1 1/1to1/2 1/2to0/2 0/2to1/2"/>
    </vehicle>
    <vehicle id="38" depart="370.00" repno="12" period="600.00">
        <route edges="11/3to10/3 10/3to10/4 10/4to10/5 10/5to10/6 10/6to10/7 10/7to11/7 11/7to10/7"/>
    </vehicle>
    <vehicle id="39" depart="380.00" repno="12" period="600.00">
        <route edges="7/0to7/1 7/1to6/1 6/1to6/2 6/2to5/2 5/2to4/2 4/2to3/2 3/2to2/2 2/2to2/3 2/3to2/4 2/4to2/5 2/5to2/6 2/6to2/7 2/7to2/8 2/8to1/8 1/8to1/9 1/9to0/9 0/9to1/9"/>
    </vehicle>
    <vehicle id="40" depart="390.00" repno="12" period="600.00">
        <route edges="11/3to10/3 10/3to9/3 9/3to8/3 8/3to7/3 7/3to6/3 6/3to5/3 5/3to4/3 4/3to3/3 3/3to2/3 2/3to2/2 2/2to2/1 2/1to2/0 2/0to2/1"/>
    </vehicle>
    <vehicle id="41" depart="400.00" repno="12" period="600.00">
        <route edges="3/11to3/10 3/10to2/10 2/10to2/9 2/9to1/9 1/9to0/9 0/9to1/9"/>
    </vehicle>
    <vehicle id="42" depart="410.00" repno="12" period="600.00">
        <route edges="9/0to9/1 9/1to8/1 8/1to7/1 7/1to7/2 7/2to7/3 7/3to7/4 7/4to6/4 6/4to6/5 6/5to6/6 6/6to6/7 6/7to6/8 6/8to6/9 6/9to6/10 6/10to5/10 5/10to5/11 5/11to5/10"/>
    </vehicle>
    <vehicle id="43" depart="420.00" repno="12" period="600.00">
        <route edges="11/7to10/7 10/7to10/8 10/8to9/8 9/8to8/8 8/8to7/8 7/8to6/8 6/8to5/8 5/8to4/8 4/8to3/8 3/8to3/9 3/9to3/10 3/10to3/11 3/11to3/10"/>
    </vehicle>
    <vehicle id="44" depart="430.00" repno="12" period="600.00">
        <route edges="5/11to5/10 5/10to6/10 6/10to6/9 6/9to6/8 6/8to7/8 7/8to8/8 8/8to9/8 9/8to9/7 9/7to9/6 9/6to9/5 9/5to10/5 10/5to11/5 11/5to10/5"/>
    </vehicle>
    <vehicle id="45" depart="440.00" repno="12" period="600.00">
        <route edges="5/11to5/10 5/10to5/9 5/9to5/8 5/8to5/7 5/7to5/6 5/6to5/5 5/5to5/4 5/4to5/3 5/3to5/2 5/2to5/1 5/1to5/0 5/0to5/1"/>
    </vehicle>
    <vehicle id="46" depart="450.00" repno="12" period="600.00">
        <route edges="11/3to10/3 10/3to9/3 9/3to9/4 9/4to9/5 9/5to8/5 8/5to7/5 7/5to6/5 6/5to6/6 6/6to6/7 6/7to6/8 6/8to6/9 6/9to6/10 6/10to5/10 5/10to5/11 5/11to5/10"/>
    </vehicle>
    <vehicle id="47" depart="460.00" repno="12" period="600.00">
        <route edges="7/0to7/1 7/1to8/1 8/1to9/1 9/1to9/0 9/0to9/1"/>
    </vehicle>
    <vehicle id="48" depart="470.00" repno="12" period="600.00">
        <route edges="9/0to9/1 9/1to10/1 10/1to10/2 10/2to10/3 10/3to11/3 11/3to10/3"/>
    </vehicle>
    <vehicle id="49" depart="480.00" repno="12" period="600.00">
        <route edges="2/0to2/1 2/1to2/2 2/2to1/2 1/2to1/3 1/3to1/4 1/4to1/5 1/5to0/5 0/5to1/5"/>
    </vehicle>
    <vehicle id="50" depart="490.00" repno="12" period="600.00">
        <route edges="2/0to2/1 2/1to3/1 3/1to4/1 4/1to4/2 4/2to5/2 5/2to6/2 6/2to7/2 7/2to8/2 8/2to9/2 9/2to10/2 10/2to10/3 10/3to11/3 11/3to10/3"/>
    </vehicle>
    <vehicle id="51" depart="500.00" repno="12" period="600.00">
        <route edges="0/5to1/5 1/5to1/4 1/4to1/3 1/3to2/3 2/3to3/3 3/3to3/2 3/2to4/2 4/2to4/1 4/1to5/1 5/1to6/1 6/1to7/1 7/1to8/1 8/1to9/1 9/1to9/0 9/0to9/1"/>
    </vehicle>
    <vehicle id="52" depart="510.00" repno="12" period="600.00">
        <route edges="11/9to10/9 10/9to9/9 9/9to9/8 9/8to8/8 8/8to8/7 8/7to7/7 7/7to6/7 6/7to5/7 5/7to4/7 4/7to3/7 3/7to2/7 2/7to1/7 1/7to0/7 0/7to1/7"/>
    </vehicle>
    <vehicle id="53" depart="520.00" repno="12" period="600.00">
        <route edges="0/7to1/7 1/7to1/6 1/6to1/5 1/5to0/5 0/5to1/5"/>
    </vehicle>
    <vehicle id="54" depart="530.00" repno="12" period="600.00">
        <route edges="0/5to1/5 1/5to2/5 2/5to3/5 3/5to4/5 4/5to5/5 5/5to6/5 6/5to7/5 7/5to7/6 7/6to8/6 8/6to8/7 8/7to9/7 9/7to10/7 10/7to11/7 11/7to10/7"/>
    </vehicle>
    <vehicle id="55" depart="540.00" repno="12" period="600.00">
        <route edges="11/5to10/5 10/5to10/4 10/4to10/3 10/3to11/3 11/3to10/3"/>
    </vehicle>
    <vehicle id="56" depart="550.00" repno="12" period="600.00">
        <route edges="5/0to5/1 5/1to5/2 5/2to5/3 5/3to6/3 6/3to7/3 7/3to8/3 8/3to9/3 9/3to9/4 9/4to9/5 9/5to10/5 10/5to10/6 10/6to10/7 10/7to11/7 11/7to10/7"/>
    </vehicle>
    <vehicle id="57" depart="560.00" repno="12" period="600.00">
        <route edges="5/0to5/1 5/1to5/2 5/2to6/2 6/2to7/2 7/2to8/2 8/2to9/2 9/2to9/3 9/3to9/4 9/4to9/5 9/5to10/5 10/5to11/5 11/5to10/5"/>
    </vehicle>
    <vehicle id="58" depart="570.00" repno="12" period="600.00">
        <route edges="0/7to1/7 1/7to1/6 1/6to2/6 2/6to3/6 3/6to4/6 4/6to5/6 5/6to6/6 6/6to7/6 7/6to8/6 8/6to9/6 9/6to10/6 10/6to10/7 10/7to11/7 11/7to10/7"/>
    </vehicle>
    <vehicle id="59" depart="580.00" repno="12" period="600.00">
        <route edges="0/9to1/9 1/9to2/9 2/9to2/10 2/10to3/10 3/10to4/10 4/10to5/10 5/10to6/10 6/10to7/10 7/10to8/10 8/10to9/10 9/10to9/11 9/11to9/10"/>
    </vehicle>
    <vehicle id="60" depart="590.00" repno="12" period="600.00">
        <route edges="11/5to10/5 10/5to10/6 10/6to9/6 9/6to8/6 8/6to7/6 7/6to6/6 6/6to5/6 5/6to4/6 4/6to4/7 4/7to4/8 4/8to4/9 4/9to4/10 4/10to3/10 3/10to3/11 3/11to3/10"/>
    </vehicle>
    <vehicle id="61" depart="600.00" repno="12" period="600.00">
        <route edges="3/11to3/10 3/10to3/9 3/9to4/9 4/9to5/9 5/9to6/9 6/9to7/9 7/9to8/9 8/9to9/9 9/9to10/9 10/9to11/9 11/9to10/9"/>
    </vehicle>
    <vehicle id="62" depart="610.00" repno="12" period="600.00">
        <route edges="7/11to7/10 7/10to7/9 7/9to7/8 7/8to7/7 7/7to7/6 7/6to7/5 7/5to7/4 7/4to7/3 7/3to7/2 7/2to7/1 7/1to7/0 7/0to7/1"/>
    </vehicle>
    <vehicle id="63" depart="620.00" repno="12" period="600.00">
        <route edges="11/7to10/7 10/7to9/7 9/7to8/7 8/7to7/7 7/7to6/7 6/7to5/7 5/7to5/8 5/8to5/9 5/9to5/10 5/10to5/11 5/11to5/10"/>
    </vehicle>
    <vehicle id="64" depart="630.00" repno="12" period="600.00">
        <route edges="11/3to10/3 10/3to9/3 9/3to8/3 8/3to7/3 7/3to6/3 6/3to5/3 5/3to4/3 4/3to3/3 3/3to2/3 2/3to1/3 1/3to1/4 1/4to1/5 1/5to1/6 1/6to1/7 1/7to1/8 1/8to1/9 1/9to0/9 0/9to1/9"/>
    </vehicle>
    <vehicle id="65" depart="640.00" repno="12" period="600.00">
        <route edges="0/9to1/9 1/9to1/8 1/8to2/8 2/8to3/8 3/8to4/8 4/8to5/8 5/8to5/7 5/7to5/6 5/6to5/5 5/5to5/4 5/4to6/4 6/4to7/4 7/4to8/4 8/4to9/4 9/4to10/4 10/4to10/3 10/3to11/3 11/3to10/3"/>
    </vehicle>
    <vehicle id="66" depart="650.00" repno="12" period="600.00">
        <route edges="7/0to7/1 7/1to6/1 6/1to6/2 6/2to5/2 5/2to4/2 4/2to3/2 3/2to2/2 2/2to1/2 1/2to0/2 0/2to1/2"/>
    </vehicle>
    <vehicle id="67" depart="660.00" repno="12" period="600.00">
        <route edges="11/9to10/9 10/9to10/8 10/8to10/7 10/7to10/6 10/6to10/5 10/5to10/4 10/4to10/3 10/3to10/2 10/2to10/1 10/1to9/1 9/1to9/0 9/0to9/1"/>
    </vehicle>
    <vehicle id="68" depart="670.00" repno="12" period="600.00">
        <route edges="0/2to1/2 1/2to2/2 2/2to2/1 2/1to3/1 3/1to4/1 4/1to5/1 5/1to5/0 5/0to5/1"/>
    </vehicle>
    <vehicle id="69" depart="680.00" repno="12" period="600.00">
        <route edges="11/3to10/3 10/3to10/2 10/2to9/2 9/2to9/1 9/1to9/0 9/0to9/1"/>
    </vehicle>
    <vehicle id="70" depart="690.00" repno="12" period="600.00">
        <route edges="11/9to10/9 10/9to9/9 9/9to9/8 9/8to8/8 8/8to8/7 8/7to8/6 8/6to8/5 8/5to8/4 8/4to7/4 7/4to6/4 6/4to5/4 5/4to4/4 4/4to3/4 3/4to2/4 2/4to1/4 1/4to1/3 1/3to1/2 1/2to0/2 0/2to1/2"/>
    </vehicle>
    <vehicle id="71" depart="700.00" repno="12" period="600.00">
        <route edges="3/11to3/10 3/10to3/9 3/9to3/8 3/8to2/8 2/8to1/8 1/8to1/7 1/7to0/7 0/7to1/7"/>
    </vehicle>
    <vehicle id="72" depart="710.00" repno="12" period="600.00">
        <route edges="0/2to1/2 1/2to1/3 1/3to1/4 1/4to1/5 1/5to1/6 1/6to1/7 1/7to2/7 2/7to2/8 2/8to2/9 2/9to3/9 3/9to3/10 3/10to3/11 3/11to3/10"/>
    </vehicle>
    <vehicle id="73" depart="720.00" repno="12" period="600.00">
        <route edges="2/0to2/1 2/1to3/1 3/1to4/1 4/1to5/1 5/1to6/1 6/1to7/1 7/1to7/0 7/0to7/1"/>
    </vehicle>
    <vehicle id="74" depart="730.00" repno="12" period="600.00">
        <route edges="9/11to9/10 9/10to8/10 8/10to7/10 7/10to7/11 7/11to7/10"/>
    </vehicle>
    <vehicle id="75" depart="740.00" repno="12" period="600.00">
        <route edges="11/3to10/3 10/3to9/3 9/3to8/3 8/3to7/3 7/3to7/4 7/4to7/5 7/5to6/5 6/5to5/5 5/5to4/5 4/5to3/5 3/5to2/5 2/5to1/5 1/5to0/5 0/5to1/5"/>
    </vehicle>
    <vehicle id="76" depart="750.00" repno="12" period="600.00">
        <route edges="5/11to5/10 5/10to6/10 6/10to6/9 6/9to6/8 6/8to6/7 6/7to6/6 6/6to6/5 6/5to6/4 6/4to6/3 6/3to7/3 7/3to8/3 8/3to9/3 9/3to9/2 9/2to9/1 9/1to9/0 9/0to9/1"/>
    </vehicle>
    <vehicle id="77" depart="760.00" repno="12" period="600.00">
        <route edges="5/11to5/10 5/10to5/9 5/9to6/9 6/9to7/9 7/9to8/9 8/9to9/9 9/9to10/9 10/9to10/8 10/8to10/7 10/7to11/7 11/7to10/7"/>
    </vehicle>
    <vehicle id="78" depart="770.00" repno="12" period="600.00">
        <route edges="0/5to1/5 1/5to2/5 2/5to3/5 3/5to4/5 4/5to5/5 5/5to6/5 6/5to7/5 7/5to8/5 8/5to9/5 9/5to10/5 10/5to10/6 10/6to10/7 10/7to10/8 10/8to10/9 10/9to11/9 11/9to10/9"/>
    </vehicle>
    <vehicle id="79" depart="780.00" repno="12" period="600.00">
        <route edges="11/9to10/9 10/9to9/9 9/9to8/9 8/9to8/8 8/8to7/8 7/8to7/7 7/7to7/6 7/6to6/6 6/6to5/6 5/6to4/6 4/6to3/6 3/6to3/5 3/5to3/4 3/4to2/4 2/4to2/3 2/3to2/2 2/2to2/1 2/1to2/0 2/0to2/1"/>
    </vehicle>
    <vehicle id="80" depart="790.00" repno="12" period="600.00">
        <route edges="5/0to5/1 5/1to5/2 5/2to5/3 5/3to5/4 5/4to6/4 6/4to7/4 7/4to7/5 7/5to7/6 7/6to7/7 7/7to7/8 7/8to7/9 7/9to7/10 7/10to7/11 7/11to7/10"/>
    </vehicle>
    <vehicle id="81" depart="800.00" repno="12" period="600.00">
        <route edges="5/0to5/1 5/1to5/2 5/2to5/3 5/3to5/4 5/4to6/4 6/4to7/4 7/4to8/4 8/4to9/4 9/4to9/5 9/5to9/6 9/6to9/7 9/7to9/8 9/8to9/9 9/9to9/10 9/10to9/11 9/11to9/10"/>
    </vehicle>
    <vehicle id="82" depart="810.00" repno="12" period="600.00">
        <route edges="11/5to10/5 10/5to10/4 10/4to9/4 9/4to8/4 8/4to8/3 8/3to8/2 8/2to7/2 7/2to7/1 7/1to7/0 7/0to7/1"/>
    </vehicle>
    <vehicle id="83" depart="820.00" repno="12" period="600.00">
        <route edges="2/0to2/1 2/1to3/1 3/1to4/1 4/1to5/1 5/1to5/2 5/2to6/2 6/2to7/2 7/2to8/2 8/2to8/3 8/3to9/3 9/3to9/4 9/4to9/5 9/5to10/5 10/5to11/5 11/5to10/5"/>
    </vehicle>
    <vehicle id="84" depart="830.00" repno="12" period="600.00">
        <route edges="0/5to1/5 1/5to1/4 1/4to1/3 1/3to1/2 1/2to1/1 1/1to2/1 2/1to3/1 3/1to4/1 4/1to5/1 5/1to6/1 6/1to7/1 7/1to7/0 7/0to7/1"/>
    </vehicle>
    <vehicle id="85" depart="840.00" repno="12" period="600.00">
        <route edges="5/0to5/1 5/1to5/2 5/2to5/3 5/3to6/3 6/3to7/3 7/3to8/3 8/3to9/3 9/3to10/3 10/3to11/3 11/3to10/3"/>
    </vehicle>
    <vehicle id="86" depart="850.00" repno="12" period="600.00">
        <route edges="7/11to7/10 7/10to6/10 6/10to6/9 6/9to6/8 6/8to5/8 5/8to4/8 4/8to4/7 4/7to4/6 4/6to3/6 3/6to2/6 2/6to1/6 1/6to1/5 1/5to0/5 0/5to1/5"/>
    </vehicle>
    <vehicle id="87" depart="860.00" repno="12" period="600.00">
        <route edges="11/5to10/5 10/5to9/5 9/5to8/5 8/5to7/5 7/5to7/6 7/6to7/7 7/7to6/7 6/7to6/8 6/8to6/9 6/9to6/10 6/10to5/10 5/10to5/11 5/11to5/10"/>
    </vehicle>
    <vehicle id="88" depart="870.00" repno="12" period="600.00">
        <route edges="9/11to9/10 9/10to9/9 9/9to9/8 9/8to10/8 10/8to10/7 10/7to11/7 11/7to10/7"/>
    </vehicle>
    <vehicle id="89" depart="880.00" repno="12" period="600.00">
        <route edges="11/5to10/5 10/5to10/6 10/6to10/7 10/7to11/7 11/7to10/7"/>
    </vehicle>
    <vehicle id="90" depart="890.00" repno="12" period="600.00">
        <route edges="9/11to9/10 9/10to8/10 8/10to8/9 8/9to8/8 8/8to8/7 8/7to8/6 8/6to8/5 8/5to8/4 8/4to8/3 8/3to8/2 8/2to8/1 8/1to7/1 7/1to6/1 6/1to5/1 5/1to5/0 5/0to5/1"/>
    </vehicle>
    <vehicle id="91" depart="900.00" repno="12" period="600.00">
        <route edges="0/2to1/2 1/2to1/3 1/3to1/4 1/4to1/5 1/5to0/5 0/5to1/5"/>
    </vehicle>
    <vehicle id="92" depart="910.00" repno="12" period="600.00">
        <route edges="7/11to7/10 7/10to6/10 6/10to6/9 6/9to6/8 6/8to6/7 6/7to5/7 5/7to5/6 5/6to5/5 5/5to5/4 5/4to5/3 5/3to5/2 5/2to5/1 5/1to5/0 5/0to5/1"/>
    </vehicle>
    <vehicle id="93" depart="920.00" repno="12" period="600.00">
        <route edges="7/0to7/1 7/1to6/1 6/1to5/1 5/1to5/0 5/0to5/1"/>
    </vehicle>
    <vehicle id="94" depart="930.00" repno="12" period="600.00">
        <route edges="11/9to10/9 10/9to10/8 10/8to10/7 10/7to11/7 11/7to10/7"/>
    </vehicle>
    <vehicle id="95" depart="940.00" repno="12" period="600.00">
        <route edges="0/2to1/2 1/2to2/2 2/2to2/1 2/1to2/0 2/0to2/1"/>
    </vehicle>
    <vehicle id="96" depart="950.00" repno="12" period="600.00">
        <route edges="0/7to1/7 1/7to2/7 2/7to2/8 2/8to2/9 2/9to3/9 3/9to3/10 3/10to3/11 3/11to3/10"/>
    </vehicle>
    <vehicle id="97" depart="960.00" repno="12" period="600.00">
        <route edges="9/11to9/10 9/10to8/10 8/10to7/10 7/10to6/10 6/10to5/10 5/10to5/11 5/11to5/10"/>
    </vehicle>
    <vehicle id="98" depart="970.00" repno="12" period="600.00">
        <route edges="0/5to1/5 1/5to1/4 1/4to2/4 2/4to3/4 3/4to4/4 4/4to5/4 5/4to6/4 6/4to7/4 7/4to8/4 8/4to9/4 9/4to10/4 10/4to10/5 10/5to11/5 11/5to10/5"/>
    </vehicle>
    <vehicle id="99" depart="980.00" repno="12" period="600.00">
        <route edges="5/0to5/1 5/1to4/1 4/1to3/1 3/1to3/2 3/2to2/2 2/2to1/2 1/2to0/2 0/2to1/2"/>
    </vehicle>
    <vehicle id="100" depart="990.00" repno="12" period="600.00">
        <route edges="3/11to3/10 3/10to4/10 4/10to4/9 4/9to4/8 4/8to4/7 4/7to4/6 4/6to4/5 4/5to5/5 5/5to5/4 5/4to5/3 5/3to5/2 5/2to5/1 5/1to6/1 6/1to7/1 7/1to8/1 8/1to9/1 9/1to9/0 9/0to9/1"/>
    </vehicle>
    <vehicle id="101" depart="1000.00" repno="12" period="600.00">
        <route edges="11/7to10/7 10/7to10/8 10/8to9/8 9/8to8/8 8/8to7/8 7/8to6/8 6/8to5/8 5/8to4/8 4/8to3/8 3/8to2/8 2/8to1/8 1/8to1/7 1/7to0/7 0/7to1/7"/>
    </vehicle>
    <vehicle id="102" depart="1010.00" repno="12" period="600.00">
        <route edges="0/9to1/9 1/9to1/10 1/10to2/10 2/10to3/10 3/10to3/11 3/11to3/10"/>
    </vehicle>
    <vehicle id="103" depart="1020.00" repno="12" period="600.00">
        <route edges="0/7to1/7 1/7to2/7 2/7to3/7 3/7to4/7 4/7to4/8 4/8to5/8 5/8to5/9 5/9to6/9 6/9to7/9 7/9to8/9 8/9to9/9 9/9to10/9 10/9to11/9 11/9to10/9"/>
    </vehicle>
    <vehicle id="104" depart="1030.00" repno="12" period="600.00">
        <route edges="2/0to2/1 2/1to3/1 3/1to4/1 4/1to5/1 5/1to6/1 6/1to7/1 7/1to8/1 8/1to9/1 9/1to10/1 10/1to10/2 10/2to10/3 10/3to10/4 10/4to10/5 10/5to10/6 10/6to10/7 10/7to11/7 11/7to10/7"/>
    </vehicle>
    <vehicle id="105" depart="1040.00" repno="12" period="600.00">
        <route edges="11/7to10/7 10/7to10/6 10/6to9/6 9/6to8/6 8/6to8/5 8/5to8/4 8/4to7/4 7/4to7/3 7/3to6/3 6/3to5/3 5/3to4/3 4/3to3/3 3/3to2/3 2/3to1/3 1/3to1/2 1/2to0/2 0/2to1/2"/>
    </vehicle>
    <vehicle id="106" depart="1050.00" repno="12" period="600.00">
        <route edges="11/5to10/5 10/5to9/5 9/5to8/5 8/5to7/5 7/5to6/5 6/5to5/5 5/5to4/5 4/5to3/5 3/5to2/5 2/5to1/5 1/5to0/5 0/5to1/5"/>
    </vehicle>
    <vehicle id="107" depart="1060.00" repno="12" period="600.00">
        <route edges="7/11to7/10 7/10to8/10 8/10to9/10 9/10to10/10 10/10to10/9 10/9to11/9 11/9to10/9"/>
    </vehicle>
    <vehicle id="108" depart="1070.00" repno="12" period="600.00">
        <route edges="5/11to5/10 5/10to4/10 4/10to4/9 4/9to4/8 4/8to3/8 3/8to2/8 2/8to1/8 1/8to1/7 1/7to0/7 0/7to1/7"/>
    </vehicle>
    <vehicle id="109" depart="1080.00" repno="12" period="600.00">
        <route edges="11/9to10/9 10/9to9/9 9/9to9/10 9/10to8/10 8/10to7/10 7/10to6/10 6/10to5/10 5/10to4/10 4/10to3/10 3/10to3/11 3/11to3/10"/>
    </vehicle>
    <vehicle id="110" depart="1090.00" repno="12" period="600.00">
        <route edges="7/0to7/1 7/1to7/2 7/2to8/2 8/2to9/2 9/2to10/2 10/2to10/3 10/3to10/4 10/4to10/5 10/5to11/5 11/5to10/5"/>
    </vehicle>
    <vehicle id="111" depart="1100.00" repno="12" period="600.00">
        <route edges="11/9to10/9 10/9to9/9 9/9to9/8 9/8to8/8 8/8to8/7 8/7to7/7 7/7to7/6 7/6to7/5 7/5to7/4 7/4to7/3 7/3to7/2 7/2to7/1 7/1to7/0 7/0to7/1"/>
    </vehicle>
    <vehicle id="112" depart="1110.00" repno="12" period="600.00">
        <route edges="9/0to9/1 9/1to8/1 8/1to7/1 7/1to6/1 6/1to5/1 5/1to4/1 4/1to3/1 3/1to2/1 2/1to1/1 1/1to1/2 1/2to1/3 1/3to1/4 1/4to1/5 1/5to1/6 1/6to1/7 1/7to0/7 0/7to1/7"/>
    </vehicle>
    <vehicle id="113" depart="1120.00" repno="12" period="600.00">
        <route edges="11/7to10/7 10/7to9/7 9/7to9/8 9/8to8/8 8/8to8/9 8/9to8/10 8/10to7/10 7/10to7/11 7/11to7/10"/>
    </vehicle>
    <vehicle id="114" depart="1130.00" repno="12" period="600.00">
        <route edges="2/0to2/1 2/1to3/1 3/1to4/1 4/1to4/2 4/2to4/3 4/3to4/4 4/4to5/4 5/4to5/5 5/5to5/6 5/6to5/7 5/7to5/8 5/8to5/9 5/9to5/10 5/10to6/10 6/10to7/10 7/10to8/10 8/10to9/10 9/10to9/11 9/11to9/10"/>
    </vehicle>
    <vehicle id="115" depart="1140.00" repno="12" period="600.00">
        <route edges="11/5to10/5 10/5to10/6 10/6to9/6 9/6to8/6 8/6to8/7 8/7to7/7 7/7to6/7 6/7to5/7 5/7to4/7 4/7to3/7 3/7to2/7 2/7to1/7 1/7to0/7 0/7to1/7"/>
    </vehicle>
    <vehicle id="116" depart="1150.00" repno="12" period="600.00">
        <route edges="3/11to3/10 3/10to4/10 4/10to4/9 4/9to4/8 4/8to4/7 4/7to4/6 4/6to5/6 5/6to6/6 6/6to7/6 7/6to8/6 8/6to9/6 9/6to10/6 10/6to10/5 10/5to11/5 11/5to10/5"/>
    </vehicle>
    <vehicle id="117" depart="1160.00" repno="12" period="600.00">
        <route edges="11/7to10/7 10/7to10/6 10/6to9/6 9/6to9/5 9/5to9/4 9/4to8/4 8/4to8/3 8/3to8/2 8/2to8/1 8/1to7/1 7/1to6/1 6/1to5/1 5/1to4/1 4/1to3/1 3/1to2/1 2/1to2/0 2/0to2/1"/>
    </vehicle>
    <vehicle id="118" depart="1170.00" repno="12" period="600.00">
        <route edges="5/0to5/1 5/1to6/1 6/1to7/1 7/1to8/1 8/1to9/1 9/1to9/0 9/0to9/1"/>
    </vehicle>
    <vehicle id="119" depart="1180.00" repno="12" period="600.00">
        <route edges="7/11to7/10 7/10to6/10 6/10to5/10 5/10to4/10 4/10to3/10 3/10to2/10 2/10to1/10 1/10to1/9 1/9to1/8 1/8to1/7 1/7to0/7 0/7to1/7"/>
    </vehicle>
    <vehicle id="120" depart="1190.00" repno="12" period="600.00">
        <route edges="11/7to10/7 10/7to10/8 10/8to10/9 10/9to11/9 11/9to10/9"/>
    </vehicle>
    <vehicle id="121" depart="1200.00" repno="12" period="600.00">
        <route edges="0/9to1/9 1/9to2/9 2/9to2/8 2/8to3/8 3/8to3/7 3/7to3/6 3/6to3/5 3/5to3/4 3/4to3/3 3/3to3/2 3/2to3/1 3/1to4/1 4/1to5/1 5/1to6/1 6/1to7/1 7/1to8/1 8/1to9/1 9/1to9/0 9/0to9/1"/>
    </vehicle>
    <vehicle id="122" depart="1210.00" repno="12" period="600.00">
        <route edges="11/7to10/7 10/7to9/7 9/7to8/7 8/7to7/7 7/7to6/7 6/7to5/7 5/7to5/6 5/6to5/5 5/5to5/4 5/4to5/3 5/3to5/2 5/2to5/1 5/1to5/0 5/0to5/1"/>
    </vehicle>
    <vehicle id="123" depart="1220.00" repno="12" period="600.00">
        <route edges="9/0to9/1 9/1to9/2 9/2to9/3 9/3to9/4 9/4to10/4 10/4to10/5 10/5to11/5 11/5to10/5"/>
    </vehicle>
    <vehicle id="124" depart="1230.00" repno="12" period="600.00">
        <route edges="5/11to5/10 5/10to5/9 5/9to5/8 5/8to5/7 5/7to5/6 5/6to5/5 5/5to5/4 5/4to4/4 4/4to4/3 4/3to4/2 4/2to4/1 4/1to3/1 3/1to2/1 2/1to2/0 2/0to2/1"/>
    </vehicle>
    <vehicle id="125" depart="1240.00" repno="12" period="600.00">
        <route edges="5/0to5/1 5/1to6/1 6/1to7/1 7/1to7/0 7/0to7/1"/>
    </vehicle>
    <vehicle id="126" depart="1250.00" repno="12" period="600.00">
        <route edges="0/7to1/7 1/7to2/7 2/7to3/7 3/7to4/7 4/7to4/6 4/6to5/6 5/6to6/6 6/6to7/6 7/6to8/6 8/6to9/6 9/6to9/5 9/5to10/5 10/5to11/5 11/5to10/5"/>
    </vehicle>
    <vehicle id="127" depart="1260.00" repno="12" period="600.00">
        <route edges="0/2to1/2 1/2to1/3 1/3to2/3 2/3to3/3 3/3to3/4 3/4to4/4 4/4to4/5 4/5to4/6 4/6to4/7 4/7to4/8 4/8to5/8 5/8to6/8 6/8to7/8 7/8to8/8 8/8to9/8 9/8to9/9 9/9to9/10 9/10to9/11 9/11to9/10"/>
    </vehicle>
    <vehicle id="128" depart="1270.00" repno="12" period="600.00">
        <route edges="0/2to1/2 1/2to1/1 1/1to2/1 2/1to3/1 3/1to4/1 4/1to5/1 5/1to6/1 6/1to7/1 7/1to7/0 7/0to7/1"/>
    </vehicle>
    <vehicle id="129" depart="1280.00" repno="12" period="600.00">
        <route edges="0/5to1/5 1/5to2/5 2/5to3/5 3/5to3/6 3/6to3/7 3/7to3/8 3/8to3/9 3/9to3/10 3/10to3/11 3/11to3/10"/>
    </vehicle>
    <vehicle id="130" depart="1290.00" repno="12" period="600.00">
        <route edges="0/2to1/2 1/2to2/2 2/2to2/3 2/3to3/3 3/3to3/4 3/4to4/4 4/4to4/5 4/5to4/6 4/6to4/7 4/7to4/8 4/8to4/9 4/9to4/10 4/10to5/10 5/10to5/11 5/11to5/10"/>
    </vehicle>
    <vehicle id="131" depart="1300.00" repno="12" period="600.00">
        <route edges="11/3to10/3 10/3to9/3 9/3to9/2 9/2to8/2 8/2to7/2 7/2to6/2 6/2to5/2 5/2to4/2 4/2to3/2 3/2to2/2 2/2to1/2 1/2to0/2 0/2to1/2"/>
    </vehicle>
    <vehicle id="132" depart="1310.00" repno="12" period="600.00">
        <route edges="11/5to10/5 10/5to9/5 9/5to9/4 9/4to9/3 9/3to9/2 9/2to9/1 9/1to8/1 8/1to7/1 7/1to6/1 6/1to5/1 5/1to5/0 5/0to5/1"/>
    </vehicle>
    <vehicle id="133" depart="1320.00" repno="12" period="600.00">