<?xml version="1.0" encoding="iso-8859-1"?>

<configuration xmlns:xsi="http://www.w3.org/2001/XMLSchema-instance" xsi:noNamespaceSchemaLocation="http://sumo.sf.net/xsd/sumoConfiguration.xsd">

    <input>
        <net-file value="cologne.net.xml"/>
        <!--route-files value="cologne1route.rou.xml"/ -->
        <route-files value="cologne1-3.rou.xml"/>

  <!--additional-files value="/home/arturo/SIM-TOOLS/TAPASCologne-0.0.3/road/no_internal/testTAZ-1000mt.poly.xml"/-->

    </input>

    <time>
        <begin value="0"/>
        <end value="7200"/>
   	<step-length value="1"/>

    </time>
</configuration>
