<?xml version="1.0" encoding="iso-8859-1"?>

<!-- generated on Fri May 18 18:35:05 2012 by SUMO netconvert Version 0.13.1
<?xml version="1.0" encoding="iso-8859-1"?>

<configuration xmlns:xsi="http://www.w3.org/2001/XMLSchema-instance" xsi:noNamespaceSchemaLocation="http://sumo.sf.net/xsd/netconvertConfiguration.xsd">

    <input>
        <node-files value="testbed.nod.xml"/>
        <edge-files value="testbed.edg.xml"/>
        <type-files value="testbed.typ.xml"/>
    </input>

    <output>
        <output-file value="paper.net.xml"/>
    </output>

</configuration>
-->

<net version="0.13" xmlns:xsi="http://www.w3.org/2001/XMLSchema-instance" xsi:noNamespaceSchemaLocation="http://sumo.sf.net/xsd/net_file.xsd">

    <location netOffset="10.00,10.00" convBoundary="0.00,0.00,420.00,420.00" origBoundary="-10.00,-10.00,410.00,410.00" projParameter="!"/>

    <edge id=":0_0" function="internal">
        <lane id=":0_0_0" index="0" speed="50.00" length="7.90" shape="8.35,13.25 8.66,11.11 9.57,9.57 11.11,8.66 13.25,8.35"/>
    </edge>
    <edge id=":0_1" function="internal">
        <lane id=":0_1_0" index="0" speed="50.00" length="2.41" shape="8.35,13.25 9.17,12.01 10.00,11.60"/>
    </edge>
    <edge id=":0_4" function="internal">
        <lane id=":0_4_0" index="0" speed="50.00" length="2.41" shape="10.00,11.60 10.82,12.01 11.65,13.25"/>
    </edge>
    <edge id=":0_2" function="internal">
        <lane id=":0_2_0" index="0" speed="50.00" length="2.58" shape="13.25,11.65 12.55,11.75 12.05,12.05 11.75,12.55 11.65,13.25"/>
    </edge>
    <edge id=":0_3" function="internal">
        <lane id=":0_3_0" index="0" speed="50.00" length="2.41" shape="13.25,11.65 12.01,10.82 11.60,10.00"/>
    </edge>
    <edge id=":0_5" function="internal">
        <lane id=":0_5_0" index="0" speed="50.00" length="2.41" shape="11.60,10.00 12.01,9.17 13.25,8.35"/>
    </edge>
    <edge id=":1_0" function="internal">
        <lane id=":1_0_0" index="0" speed="50.00" length="5.00" shape="108.35,14.75 108.16,13.39 107.57,12.42 106.61,11.84 105.25,11.65"/>
    </edge>
    <edge id=":1_1" function="internal">
        <lane id=":1_1_0" index="0" speed="50.00" length="10.32" shape="108.35,14.75 108.75,11.95 109.95,9.95 111.95,8.75 114.75,8.35"/>
    </edge>
    <edge id=":1_2" function="internal">
        <lane id=":1_2_0" index="0" speed="50.00" length="4.82" shape="108.35,14.75 109.18,13.51 110.00,13.10 110.83,13.51 111.65,14.75"/>
    </edge>
    <edge id=":1_3" function="internal">
        <lane id=":1_3_0" index="0" speed="50.00" length="5.00" shape="114.75,11.65 113.39,11.84 112.43,12.43 111.84,13.39 111.65,14.75"/>
    </edge>
    <edge id=":1_4" function="internal">
        <lane id=":1_4_0" index="0" speed="50.00" length="9.50" shape="114.75,11.65 105.25,11.65"/>
    </edge>
    <edge id=":1_5" function="internal">
        <lane id=":1_5_0" index="0" speed="50.00" length="2.41" shape="114.75,11.65 113.51,10.83 113.10,10.00"/>
    </edge>
    <edge id=":1_9" function="internal">
        <lane id=":1_9_0" index="0" speed="50.00" length="2.41" shape="113.10,10.00 113.51,9.18 114.75,8.35"/>
    </edge>
    <edge id=":1_6" function="internal">
        <lane id=":1_6_0" index="0" speed="50.00" length="9.50" shape="105.25,8.35 114.75,8.35"/>
    </edge>
    <edge id=":1_7" function="internal">
        <lane id=":1_7_0" index="0" speed="50.00" length="7.14" shape="105.25,8.35 108.05,8.75 110.05,9.95 111.07,11.65"/>
    </edge>
    <edge id=":1_10" function="internal">
        <lane id=":1_10_0" index="0" speed="50.00" length="3.18" shape="111.07,11.65 111.25,11.95 111.65,14.75"/>
    </edge>
    <edge id=":1_8" function="internal">
        <lane id=":1_8_0" index="0" speed="50.00" length="2.41" shape="105.25,8.35 106.49,9.17 106.90,10.00"/>
    </edge>
    <edge id=":1_11" function="internal">
        <lane id=":1_11_0" index="0" speed="50.00" length="2.41" shape="106.90,10.00 106.49,10.82 105.25,11.65"/>
    </edge>
    <edge id=":10_0" function="internal">
        <lane id=":10_0_0" index="0" speed="50.00" length="9.50" shape="8.35,214.75 8.35,205.25"/>
    </edge>
    <edge id=":10_1" function="internal">
        <lane id=":10_1_0" index="0" speed="50.00" length="7.14" shape="8.35,214.75 8.75,211.95 9.95,209.95 11.65,208.93"/>
    </edge>
    <edge id=":10_9" function="internal">
        <lane id=":10_9_0" index="0" speed="50.00" length="3.18" shape="11.65,208.93 11.95,208.75 14.75,208.35"/>
    </edge>
    <edge id=":10_2" function="internal">
        <lane id=":10_2_0" index="0" speed="50.00" length="2.41" shape="8.35,214.75 9.17,213.51 10.00,213.10"/>
    </edge>
    <edge id=":10_10" function="internal">
        <lane id=":10_10_0" index="0" speed="50.00" length="2.41" shape="10.00,213.10 10.82,213.51 11.65,214.75"/>
    </edge>
    <edge id=":10_3" function="internal">
        <lane id=":10_3_0" index="0" speed="50.00" length="5.00" shape="14.75,211.65 13.39,211.84 12.43,212.43 11.84,213.39 11.65,214.75"/>
    </edge>
    <edge id=":10_4" function="internal">
        <lane id=":10_4_0" index="0" speed="50.00" length="10.32" shape="14.75,211.65 11.95,211.25 9.95,210.05 8.75,208.05 8.35,205.25"/>
    </edge>
    <edge id=":10_5" function="internal">
        <lane id=":10_5_0" index="0" speed="50.00" length="4.82" shape="14.75,211.65 13.51,210.83 13.10,210.00 13.51,209.18 14.75,208.35"/>
    </edge>
    <edge id=":10_6" function="internal">
        <lane id=":10_6_0" index="0" speed="50.00" length="5.00" shape="11.65,205.25 11.84,206.61 12.43,207.58 13.39,208.16 14.75,208.35"/>
    </edge>
    <edge id=":10_7" function="internal">
        <lane id=":10_7_0" index="0" speed="50.00" length="9.50" shape="11.65,205.25 11.65,214.75"/>
    </edge>
    <edge id=":10_8" function="internal">
        <lane id=":10_8_0" index="0" speed="50.00" length="2.41" shape="11.65,205.25 10.83,206.49 10.00,206.90"/>
    </edge>
    <edge id=":10_11" function="internal">
        <lane id=":10_11_0" index="0" speed="50.00" length="2.41" shape="10.00,206.90 9.18,206.49 8.35,205.25"/>
    </edge>
    <edge id=":11_0" function="internal">
        <lane id=":11_0_0" index="0" speed="50.00" length="5.00" shape="108.35,214.75 108.16,213.39 107.57,212.42 106.61,211.84 105.25,211.65"/>
    </edge>
    <edge id=":11_1" function="internal">
        <lane id=":11_1_0" index="0" speed="50.00" length="9.50" shape="108.35,214.75 108.35,205.25"/>
    </edge>
    <edge id=":11_2" function="internal">
        <lane id=":11_2_0" index="0" speed="50.00" length="7.14" shape="108.35,214.75 108.75,211.95 109.95,209.95 111.65,208.93"/>
    </edge>
    <edge id=":11_16" function="internal">
        <lane id=":11_16_0" index="0" speed="50.00" length="3.18" shape="111.65,208.93 111.95,208.75 114.75,208.35"/>
    </edge>
    <edge id=":11_3" function="internal">
        <lane id=":11_3_0" index="0" speed="50.00" length="2.41" shape="108.35,214.75 109.18,213.51 110.00,213.10"/>
    </edge>
    <edge id=":11_17" function="internal">
        <lane id=":11_17_0" index="0" speed="50.00" length="2.41" shape="110.00,213.10 110.83,213.51 111.65,214.75"/>
    </edge>
    <edge id=":11_4" function="internal">
        <lane id=":11_4_0" index="0" speed="50.00" length="5.00" shape="114.75,211.65 113.39,211.84 112.43,212.43 111.84,213.39 111.65,214.75"/>
    </edge>
    <edge id=":11_5" function="internal">
        <lane id=":11_5_0" index="0" speed="50.00" length="9.50" shape="114.75,211.65 105.25,211.65"/>
    </edge>
    <edge id=":11_6" function="internal">
        <lane id=":11_6_0" index="0" speed="50.00" length="10.32" shape="114.75,211.65 111.95,211.25 109.95,210.05 108.75,208.05 108.35,205.25"/>
    </edge>
    <edge id=":11_7" function="internal">
        <lane id=":11_7_0" index="0" speed="50.00" length="4.82" shape="114.75,211.65 113.51,210.83 113.10,210.00 113.51,209.18 114.75,208.35"/>
    </edge>
    <edge id=":11_8" function="internal">
        <lane id=":11_8_0" index="0" speed="50.00" length="5.00" shape="111.65,205.25 111.84,206.61 112.43,207.58 113.39,208.16 114.75,208.35"/>
    </edge>
    <edge id=":11_9" function="internal">
        <lane id=":11_9_0" index="0" speed="50.00" length="9.50" shape="111.65,205.25 111.65,214.75"/>
    </edge>
    <edge id=":11_10" function="internal">
        <lane id=":11_10_0" index="0" speed="50.00" length="7.14" shape="111.65,205.25 111.25,208.05 110.05,210.05 108.35,211.07"/>
    </edge>
    <edge id=":11_18" function="internal">
        <lane id=":11_18_0" index="0" speed="50.00" length="3.18" shape="108.35,211.07 108.05,211.25 105.25,211.65"/>
    </edge>
    <edge id=":11_11" function="internal">
        <lane id=":11_11_0" index="0" speed="50.00" length="2.41" shape="111.65,205.25 110.82,206.49 110.00,206.90"/>
    </edge>
    <edge id=":11_19" function="internal">
        <lane id=":11_19_0" index="0" speed="50.00" length="2.41" shape="110.00,206.90 109.17,206.49 108.35,205.25"/>
    </edge>
    <edge id=":11_12" function="internal">
        <lane id=":11_12_0" index="0" speed="50.00" length="5.00" shape="105.25,208.35 106.61,208.16 107.57,207.57 108.16,206.61 108.35,205.25"/>
    </edge>
    <edge id=":11_13" function="internal">
        <lane id=":11_13_0" index="0" speed="50.00" length="9.50" shape="105.25,208.35 114.75,208.35"/>
    </edge>
    <edge id=":11_14" function="internal">
        <lane id=":11_14_0" index="0" speed="50.00" length="10.32" shape="105.25,208.35 108.05,208.75 110.05,209.95 111.25,211.95 111.65,214.75"/>
    </edge>
    <edge id=":11_15" function="internal">
        <lane id=":11_15_0" index="0" speed="50.00" length="4.82" shape="105.25,208.35 106.49,209.17 106.90,210.00 106.49,210.82 105.25,211.65"/>
    </edge>
    <edge id=":12_0" function="internal">
        <lane id=":12_0_0" index="0" speed="50.00" length="5.00" shape="208.35,214.75 208.16,213.39 207.57,212.42 206.61,211.84 205.25,211.65"/>
    </edge>
    <edge id=":12_1" function="internal">
        <lane id=":12_1_0" index="0" speed="50.00" length="9.50" shape="208.35,214.75 208.35,205.25"/>
    </edge>
    <edge id=":12_2" function="internal">
        <lane id=":12_2_0" index="0" speed="50.00" length="7.14" shape="208.35,214.75 208.75,211.95 209.95,209.95 211.65,208.93"/>
    </edge>
    <edge id=":12_16" function="internal">
        <lane id=":12_16_0" index="0" speed="50.00" length="3.18" shape="211.65,208.93 211.95,208.75 214.75,208.35"/>
    </edge>
    <edge id=":12_3" function="internal">
        <lane id=":12_3_0" index="0" speed="50.00" length="2.41" shape="208.35,214.75 209.17,213.51 210.00,213.10"/>
    </edge>
    <edge id=":12_17" function="internal">
        <lane id=":12_17_0" index="0" speed="50.00" length="2.41" shape="210.00,213.10 210.82,213.51 211.65,214.75"/>
    </edge>
    <edge id=":12_4" function="internal">
        <lane id=":12_4_0" index="0" speed="50.00" length="5.00" shape="214.75,211.65 213.39,211.84 212.43,212.43 211.84,213.39 211.65,214.75"/>
    </edge>
    <edge id=":12_5" function="internal">
        <lane id=":12_5_0" index="0" speed="50.00" length="9.50" shape="214.75,211.65 205.25,211.65"/>
    </edge>
    <edge id=":12_6" function="internal">
        <lane id=":12_6_0" index="0" speed="50.00" length="10.32" shape="214.75,211.65 211.95,211.25 209.95,210.05 208.75,208.05 208.35,205.25"/>
    </edge>
    <edge id=":12_7" function="internal">
        <lane id=":12_7_0" index="0" speed="50.00" length="4.82" shape="214.75,211.65 213.51,210.83 213.10,210.00 213.51,209.18 214.75,208.35"/>
    </edge>
    <edge id=":12_8" function="internal">
        <lane id=":12_8_0" index="0" speed="50.00" length="5.00" shape="211.65,205.25 211.84,206.61 212.43,207.58 213.39,208.16 214.75,208.35"/>
    </edge>
    <edge id=":12_9" function="internal">
        <lane id=":12_9_0" index="0" speed="50.00" length="9.50" shape="211.65,205.25 211.65,214.75"/>
    </edge>
    <edge id=":12_10" function="internal">
        <lane id=":12_10_0" index="0" speed="50.00" length="7.14" shape="211.65,205.25 211.25,208.05 210.05,210.05 208.35,211.07"/>
    </edge>
    <edge id=":12_18" function="internal">
        <lane id=":12_18_0" index="0" speed="50.00" length="3.18" shape="208.35,211.07 208.05,211.25 205.25,211.65"/>
    </edge>
    <edge id=":12_11" function="internal">
        <lane id=":12_11_0" index="0" speed="50.00" length="2.41" shape="211.65,205.25 210.83,206.49 210.00,206.90"/>
    </edge>
    <edge id=":12_19" function="internal">
        <lane id=":12_19_0" index="0" speed="50.00" length="2.41" shape="210.00,206.90 209.18,206.49 208.35,205.25"/>
    </edge>
    <edge id=":12_12" function="internal">
        <lane id=":12_12_0" index="0" speed="50.00" length="5.00" shape="205.25,208.35 206.61,208.16 207.57,207.57 208.16,206.61 208.35,205.25"/>
    </edge>
    <edge id=":12_13" function="internal">
        <lane id=":12_13_0" index="0" speed="50.00" length="9.50" shape="205.25,208.35 214.75,208.35"/>
    </edge>
    <edge id=":12_14" function="internal">
        <lane id=":12_14_0" index="0" speed="50.00" length="10.32" shape="205.25,208.35 208.05,208.75 210.05,209.95 211.25,211.95 211.65,214.75"/>
    </edge>
    <edge id=":12_15" function="internal">
        <lane id=":12_15_0" index="0" speed="50.00" length="4.82" shape="205.25,208.35 206.49,209.17 206.90,210.00 206.49,210.82 205.25,211.65"/>
    </edge>
    <edge id=":13_0" function="internal">
        <lane id=":13_0_0" index="0" speed="50.00" length="5.00" shape="308.35,214.75 308.16,213.39 307.57,212.42 306.61,211.84 305.25,211.65"/>
    </edge>
    <edge id=":13_1" function="internal">
        <lane id=":13_1_0" index="0" speed="50.00" length="9.50" shape="308.35,214.75 308.35,205.25"/>
    </edge>
    <edge id=":13_2" function="internal">
        <lane id=":13_2_0" index="0" speed="50.00" length="7.14" shape="308.35,214.75 308.75,211.95 309.95,209.95 311.65,208.93"/>
    </edge>
    <edge id=":13_16" function="internal">
        <lane id=":13_16_0" index="0" speed="50.00" length="3.18" shape="311.65,208.93 311.95,208.75 314.75,208.35"/>
    </edge>
    <edge id=":13_3" function="internal">
        <lane id=":13_3_0" index="0" speed="50.00" length="2.41" shape="308.35,214.75 309.17,213.51 310.00,213.10"/>
    </edge>
    <edge id=":13_17" function="internal">
        <lane id=":13_17_0" index="0" speed="50.00" length="2.41" shape="310.00,213.10 310.82,213.51 311.65,214.75"/>
    </edge>
    <edge id=":13_4" function="internal">
        <lane id=":13_4_0" index="0" speed="50.00" length="5.00" shape="314.75,211.65 313.39,211.84 312.43,212.43 311.84,213.39 311.65,214.75"/>
    </edge>
    <edge id=":13_5" function="internal">
        <lane id=":13_5_0" index="0" speed="50.00" length="9.50" shape="314.75,211.65 305.25,211.65"/>
    </edge>
    <edge id=":13_6" function="internal">
        <lane id=":13_6_0" index="0" speed="50.00" length="10.32" shape="314.75,211.65 311.95,211.25 309.95,210.05 308.75,208.05 308.35,205.25"/>
    </edge>
    <edge id=":13_7" function="internal">
        <lane id=":13_7_0" index="0" speed="50.00" length="4.82" shape="314.75,211.65 313.51,210.83 313.10,210.00 313.51,209.18 314.75,208.35"/>
    </edge>
    <edge id=":13_8" function="internal">
        <lane id=":13_8_0" index="0" speed="50.00" length="5.00" shape="311.65,205.25 311.84,206.61 312.43,207.58 313.39,208.16 314.75,208.35"/>
    </edge>
    <edge id=":13_9" function="internal">
        <lane id=":13_9_0" index="0" speed="50.00" length="9.50" shape="311.65,205.25 311.65,214.75"/>
    </edge>
    <edge id=":13_10" function="internal">
        <lane id=":13_10_0" index="0" speed="50.00" length="7.14" shape="311.65,205.25 311.25,208.05 310.05,210.05 308.35,211.07"/>
    </edge>
    <edge id=":13_18" function="internal">
        <lane id=":13_18_0" index="0" speed="50.00" length="3.18" shape="308.35,211.07 308.05,211.25 305.25,211.65"/>
    </edge>
    <edge id=":13_11" function="internal">
        <lane id=":13_11_0" index="0" speed="50.00" length="2.41" shape="311.65,205.25 310.83,206.49 310.00,206.90"/>
    </edge>
    <edge id=":13_19" function="internal">
        <lane id=":13_19_0" index="0" speed="50.00" length="2.41" shape="310.00,206.90 309.18,206.49 308.35,205.25"/>
    </edge>
    <edge id=":13_12" function="internal">
        <lane id=":13_12_0" index="0" speed="50.00" length="5.00" shape="305.25,208.35 306.61,208.16 307.57,207.57 308.16,206.61 308.35,205.25"/>
    </edge>
    <edge id=":13_13" function="internal">
        <lane id=":13_13_0" index="0" speed="50.00" length="9.50" shape="305.25,208.35 314.75,208.35"/>
    </edge>
    <edge id=":13_14" function="internal">
        <lane id=":13_14_0" index="0" speed="50.00" length="10.32" shape="305.25,208.35 308.05,208.75 310.05,209.95 311.25,211.95 311.65,214.75"/>
    </edge>
    <edge id=":13_15" function="internal">
        <lane id=":13_15_0" index="0" speed="50.00" length="4.82" shape="305.25,208.35 306.49,209.17 306.90,210.00 306.49,210.82 305.25,211.65"/>
    </edge>
    <edge id=":14_0" function="internal">
        <lane id=":14_0_0" index="0" speed="50.00" length="5.00" shape="408.35,214.75 408.16,213.39 407.57,212.42 406.61,211.84 405.25,211.65"/>
    </edge>
    <edge id=":14_1" function="internal">
        <lane id=":14_1_0" index="0" speed="50.00" length="9.50" shape="408.35,214.75 408.35,205.25"/>
    </edge>
    <edge id=":14_2" function="internal">
        <lane id=":14_2_0" index="0" speed="50.00" length="2.41" shape="408.35,214.75 409.17,213.51 410.00,213.10"/>
    </edge>
    <edge id=":14_9" function="internal">
        <lane id=":14_9_0" index="0" speed="50.00" length="2.41" shape="410.00,213.10 410.82,213.51 411.65,214.75"/>
    </edge>
    <edge id=":14_3" function="internal">
        <lane id=":14_3_0" index="0" speed="50.00" length="9.50" shape="411.65,205.25 411.65,214.75"/>
    </edge>
    <edge id=":14_4" function="internal">
        <lane id=":14_4_0" index="0" speed="50.00" length="7.14" shape="411.65,205.25 411.25,208.05 410.05,210.05 408.35,211.07"/>
    </edge>
    <edge id=":14_10" function="internal">
        <lane id=":14_10_0" index="0" speed="50.00" length="3.18" shape="408.35,211.07 408.05,211.25 405.25,211.65"/>
    </edge>
    <edge id=":14_5" function="internal">
        <lane id=":14_5_0" index="0" speed="50.00" length="2.41" shape="411.65,205.25 410.83,206.49 410.00,206.90"/>
    </edge>
    <edge id=":14_11" function="internal">
        <lane id=":14_11_0" index="0" speed="50.00" length="2.41" shape="410.00,206.90 409.18,206.49 408.35,205.25"/>
    </edge>
    <edge id=":14_6" function="internal">
        <lane id=":14_6_0" index="0" speed="50.00" length="5.00" shape="405.25,208.35 406.61,208.16 407.57,207.57 408.16,206.61 408.35,205.25"/>
    </edge>
    <edge id=":14_7" function="internal">
        <lane id=":14_7_0" index="0" speed="50.00" length="10.32" shape="405.25,208.35 408.05,208.75 410.05,209.95 411.25,211.95 411.65,214.75"/>
    </edge>
    <edge id=":14_8" function="internal">
        <lane id=":14_8_0" index="0" speed="50.00" length="4.82" shape="405.25,208.35 406.49,209.17 406.90,210.00 406.49,210.82 405.25,211.65"/>
    </edge>
    <edge id=":15_0" function="internal">
        <lane id=":15_0_0" index="0" speed="50.00" length="9.50" shape="8.35,314.75 8.35,305.25"/>
    </edge>
    <edge id=":15_1" function="internal">
        <lane id=":15_1_0" index="0" speed="50.00" length="7.14" shape="8.35,314.75 8.75,311.95 9.95,309.95 11.65,308.93"/>
    </edge>
    <edge id=":15_12" function="internal">
        <lane id=":15_12_0" index="0" speed="50.00" length="3.18" shape="11.65,308.93 11.95,308.75 14.75,308.35"/>
    </edge>
    <edge id=":15_2" function="internal">
        <lane id=":15_2_0" index="0" speed="50.00" length="2.41" shape="8.35,314.75 9.17,313.51 10.00,313.10"/>
    </edge>
    <edge id=":15_13" function="internal">
        <lane id=":15_13_0" index="0" speed="50.00" length="2.41" shape="10.00,313.10 10.82,313.51 11.65,314.75"/>
    </edge>
    <edge id=":15_3" function="internal">
        <lane id=":15_3_0" index="0" speed="50.00" length="5.00" shape="14.75,311.65 13.39,311.84 12.43,312.42 11.84,313.39 11.65,314.75"/>
    </edge>
    <edge id=":15_4" function="internal">
        <lane id=":15_4_0" index="0" speed="50.00" length="10.32" shape="14.75,311.65 11.95,311.25 9.95,310.05 8.75,308.05 8.35,305.25"/>
    </edge>
    <edge id=":15_5" function="internal">
        <lane id=":15_5_0" index="0" speed="50.00" length="4.82" shape="14.75,311.65 13.51,310.83 13.10,310.00 13.51,309.18 14.75,308.35"/>
    </edge>
    <edge id=":15_6" function="internal">
        <lane id=":15_6_0" index="0" speed="50.00" length="5.00" shape="11.65,305.25 11.84,306.61 12.43,307.58 13.39,308.16 14.75,308.35"/>
    </edge>
    <edge id=":15_7" function="internal">
        <lane id=":15_7_0" index="0" speed="50.00" length="9.50" shape="11.65,305.25 11.65,314.75"/>
    </edge>
    <edge id=":15_8" function="internal">
        <lane id=":15_8_0" index="0" speed="50.00" length="2.41" shape="11.65,305.25 10.83,306.49 10.00,306.90"/>
    </edge>
    <edge id=":15_14" function="internal">
        <lane id=":15_14_0" index="0" speed="50.00" length="2.41" shape="10.00,306.90 9.18,306.49 8.35,305.25"/>
    </edge>
    <edge id=":15_9" function="internal">
        <lane id=":15_9_0" index="0" speed="50.00" length="5.00" shape="5.25,308.35 6.61,308.16 7.57,307.58 8.16,306.61 8.35,305.25"/>
    </edge>
    <edge id=":15_10" function="internal">
        <lane id=":15_10_0" index="0" speed="50.00" length="9.50" shape="5.25,308.35 14.75,308.35"/>
    </edge>
    <edge id=":15_11" function="internal">
        <lane id=":15_11_0" index="0" speed="50.00" length="10.32" shape="5.25,308.35 8.05,308.75 10.05,309.95 11.25,311.95 11.65,314.75"/>
    </edge>
    <edge id=":16_0" function="internal">
        <lane id=":16_0_0" index="0" speed="50.00" length="5.00" shape="108.35,314.75 108.16,313.39 107.57,312.42 106.61,311.84 105.25,311.65"/>
    </edge>
    <edge id=":16_1" function="internal">
        <lane id=":16_1_0" index="0" speed="50.00" length="9.50" shape="108.35,314.75 108.35,305.25"/>
    </edge>
    <edge id=":16_2" function="internal">
        <lane id=":16_2_0" index="0" speed="50.00" length="3.18" shape="108.35,314.75 108.75,311.95 108.93,311.65"/>
    </edge>
    <edge id=":16_16" function="internal">
        <lane id=":16_16_0" index="0" speed="50.00" length="7.14" shape="108.93,311.65 109.95,309.95 111.95,308.75 114.75,308.35"/>
    </edge>
    <edge id=":16_3" function="internal">
        <lane id=":16_3_0" index="0" speed="50.00" length="2.41" shape="108.35,314.75 109.18,313.51 110.00,313.10"/>
    </edge>
    <edge id=":16_17" function="internal">
        <lane id=":16_17_0" index="0" speed="50.00" length="2.41" shape="110.00,313.10 110.83,313.51 111.65,314.75"/>
    </edge>
    <edge id=":16_4" function="internal">
        <lane id=":16_4_0" index="0" speed="50.00" length="5.00" shape="114.75,311.65 113.39,311.84 112.43,312.42 111.84,313.39 111.65,314.75"/>
    </edge>
    <edge id=":16_5" function="internal">
        <lane id=":16_5_0" index="0" speed="50.00" length="9.50" shape="114.75,311.65 105.25,311.65"/>
    </edge>
    <edge id=":16_6" function="internal">
        <lane id=":16_6_0" index="0" speed="50.00" length="3.18" shape="114.75,311.65 111.95,311.25 111.65,311.07"/>
    </edge>
    <edge id=":16_18" function="internal">
        <lane id=":16_18_0" index="0" speed="50.00" length="7.14" shape="111.65,311.07 109.95,310.05 108.75,308.05 108.35,305.25"/>
    </edge>
    <edge id=":16_7" function="internal">
        <lane id=":16_7_0" index="0" speed="50.00" length="2.41" shape="114.75,311.65 113.51,310.83 113.10,310.00"/>
    </edge>
    <edge id=":16_19" function="internal">
        <lane id=":16_19_0" index="0" speed="50.00" length="2.41" shape="113.10,310.00 113.51,309.18 114.75,308.35"/>
    </edge>
    <edge id=":16_8" function="internal">
        <lane id=":16_8_0" index="0" speed="50.00" length="5.00" shape="111.65,305.25 111.84,306.61 112.43,307.58 113.39,308.16 114.75,308.35"/>
    </edge>
    <edge id=":16_9" function="internal">
        <lane id=":16_9_0" index="0" speed="50.00" length="9.50" shape="111.65,305.25 111.65,314.75"/>
    </edge>
    <edge id=":16_10" function="internal">
        <lane id=":16_10_0" index="0" speed="50.00" length="3.18" shape="111.65,305.25 111.25,308.05 111.07,308.35"/>
    </edge>
    <edge id=":16_20" function="internal">
        <lane id=":16_20_0" index="0" speed="50.00" length="7.14" shape="111.07,308.35 110.05,310.05 108.05,311.25 105.25,311.65"/>
    </edge>
    <edge id=":16_11" function="internal">
        <lane id=":16_11_0" index="0" speed="50.00" length="2.41" shape="111.65,305.25 110.82,306.49 110.00,306.90"/>
    </edge>
    <edge id=":16_21" function="internal">
        <lane id=":16_21_0" index="0" speed="50.00" length="2.41" shape="110.00,306.90 109.17,306.49 108.35,305.25"/>
    </edge>
    <edge id=":16_12" function="internal">
        <lane id=":16_12_0" index="0" speed="50.00" length="5.00" shape="105.25,308.35 106.61,308.16 107.57,307.58 108.16,306.61 108.35,305.25"/>
    </edge>
    <edge id=":16_13" function="internal">
        <lane id=":16_13_0" index="0" speed="50.00" length="9.50" shape="105.25,308.35 114.75,308.35"/>
    </edge>
    <edge id=":16_14" function="internal">
        <lane id=":16_14_0" index="0" speed="50.00" length="3.18" shape="105.25,308.35 108.05,308.75 108.35,308.93"/>
    </edge>
    <edge id=":16_22" function="internal">
        <lane id=":16_22_0" index="0" speed="50.00" length="7.14" shape="108.35,308.93 110.05,309.95 111.25,311.95 111.65,314.75"/>
    </edge>
    <edge id=":16_15" function="internal">
        <lane id=":16_15_0" index="0" speed="50.00" length="2.41" shape="105.25,308.35 106.49,309.17 106.90,310.00"/>
    </edge>
    <edge id=":16_23" function="internal">
        <lane id=":16_23_0" index="0" speed="50.00" length="2.41" shape="106.90,310.00 106.49,310.82 105.25,311.65"/>
    </edge>
    <edge id=":17_0" function="internal">
        <lane id=":17_0_0" index="0" speed="50.00" length="5.00" shape="208.35,314.75 208.16,313.39 207.57,312.42 206.61,311.84 205.25,311.65"/>
    </edge>
    <edge id=":17_1" function="internal">
        <lane id=":17_1_0" index="0" speed="50.00" length="9.50" shape="208.35,314.75 208.35,305.25"/>
    </edge>
    <edge id=":17_2" function="internal">
        <lane id=":17_2_0" index="0" speed="50.00" length="7.14" shape="208.35,314.75 208.75,311.95 209.95,309.95 211.65,308.93"/>
    </edge>
    <edge id=":17_16" function="internal">
        <lane id=":17_16_0" index="0" speed="50.00" length="3.18" shape="211.65,308.93 211.95,308.75 214.75,308.35"/>
    </edge>
    <edge id=":17_3" function="internal">
        <lane id=":17_3_0" index="0" speed="50.00" length="2.41" shape="208.35,314.75 209.17,313.51 210.00,313.10"/>
    </edge>
    <edge id=":17_17" function="internal">
        <lane id=":17_17_0" index="0" speed="50.00" length="2.41" shape="210.00,313.10 210.82,313.51 211.65,314.75"/>
    </edge>
    <edge id=":17_4" function="internal">
        <lane id=":17_4_0" index="0" speed="50.00" length="5.00" shape="214.75,311.65 213.39,311.84 212.43,312.42 211.84,313.39 211.65,314.75"/>
    </edge>
    <edge id=":17_5" function="internal">
        <lane id=":17_5_0" index="0" speed="50.00" length="9.50" shape="214.75,311.65 205.25,311.65"/>
    </edge>
    <edge id=":17_6" function="internal">
        <lane id=":17_6_0" index="0" speed="50.00" length="10.32" shape="214.75,311.65 211.95,311.25 209.95,310.05 208.75,308.05 208.35,305.25"/>
    </edge>
    <edge id=":17_7" function="internal">
        <lane id=":17_7_0" index="0" speed="50.00" length="4.82" shape="214.75,311.65 213.51,310.83 213.10,310.00 213.51,309.18 214.75,308.35"/>
    </edge>
    <edge id=":17_8" function="internal">
        <lane id=":17_8_0" index="0" speed="50.00" length="5.00" shape="211.65,305.25 211.84,306.61 212.43,307.58 213.39,308.16 214.75,308.35"/>
    </edge>
    <edge id=":17_9" function="internal">
        <lane id=":17_9_0" index="0" speed="50.00" length="9.50" shape="211.65,305.25 211.65,314.75"/>
    </edge>
    <edge id=":17_10" function="internal">
        <lane id=":17_10_0" index="0" speed="50.00" length="7.14" shape="211.65,305.25 211.25,308.05 210.05,310.05 208.35,311.07"/>
    </edge>
    <edge id=":17_18" function="internal">
        <lane id=":17_18_0" index="0" speed="50.00" length="3.18" shape="208.35,311.07 208.05,311.25 205.25,311.65"/>
    </edge>
    <edge id=":17_11" function="internal">
        <lane id=":17_11_0" index="0" speed="50.00" length="2.41" shape="211.65,305.25 210.83,306.49 210.00,306.90"/>
    </edge>
    <edge id=":17_19" function="internal">
        <lane id=":17_19_0" index="0" speed="50.00" length="2.41" shape="210.00,306.90 209.18,306.49 208.35,305.25"/>
    </edge>
    <edge id=":17_12" function="internal">
        <lane id=":17_12_0" index="0" speed="50.00" length="5.00" shape="205.25,308.35 206.61,308.16 207.57,307.58 208.16,306.61 208.35,305.25"/>
    </edge>
    <edge id=":17_13" function="internal">
        <lane id=":17_13_0" index="0" speed="50.00" length="9.50" shape="205.25,308.35 214.75,308.35"/>
    </edge>
    <edge id=":17_14" function="internal">
        <lane id=":17_14_0" index="0" speed="50.00" length="10.32" shape="205.25,308.35 208.05,308.75 210.05,309.95 211.25,311.95 211.65,314.75"/>
    </edge>
    <edge id=":17_15" function="internal">
        <lane id=":17_15_0" index="0" speed="50.00" length="4.82" shape="205.25,308.35 206.49,309.17 206.90,310.00 206.49,310.82 205.25,311.65"/>
    </edge>
    <edge id=":18_0" function="internal">
        <lane id=":18_0_0" index="0" speed="50.00" length="5.00" shape="308.35,314.75 308.16,313.39 307.57,312.42 306.61,311.84 305.25,311.65"/>
    </edge>
    <edge id=":18_1" function="internal">
        <lane id=":18_1_0" index="0" speed="50.00" length="9.50" shape="308.35,314.75 308.35,305.25"/>