<?xml version="1.0" encoding="iso-8859-1"?>

<!-- generated on Mon Feb 13 21:37:21 2012 by SUMO netconvert Version 0.13.1
<?xml version="1.0" encoding="iso-8859-1"?>

<configuration xmlns:xsi="http://www.w3.org/2001/XMLSchema-instance" xsi:noNamespaceSchemaLocation="http://sumo.sf.net/xsd/netconvertConfiguration.xsd">

    <input>
        <node-files value="testbed.nod.xml"/>
        <edge-files value="testbed.edg.xml"/>
        <type-files value="testbed.typ.xml"/>
    </input>

    <output>
        <output-file value="testbed.net.xml"/>
    </output>

</configuration>
-->

<net version="0.13" xmlns:xsi="http://www.w3.org/2001/XMLSchema-instance" xsi:noNamespaceSchemaLocation="http://sumo.sf.net/xsd/net_file.xsd">

    <location netOffset="10.00,0.00" convBoundary="0.00,0.00,520.00,200.00" origBoundary="-10.00,0.00,510.00,200.00" projParameter="!"/>

    <edge id=":0_0" function="internal">
        <lane id=":0_0_0" index="0" speed="50.00" length="7.90" shape="113.25,201.65 111.11,201.34 109.57,200.43 108.66,198.89 108.35,196.75"/>
    </edge>
    <edge id=":0_1" function="internal">
        <lane id=":0_1_0" index="0" speed="50.00" length="2.41" shape="113.25,201.65 112.01,200.83 111.60,200.00"/>
    </edge>
    <edge id=":0_4" function="internal">
        <lane id=":0_4_0" index="0" speed="50.00" length="2.41" shape="111.60,200.00 112.01,199.18 113.25,198.35"/>
    </edge>
    <edge id=":0_2" function="internal">
        <lane id=":0_2_0" index="0" speed="50.00" length="2.58" shape="111.65,196.75 111.75,197.45 112.05,197.95 112.55,198.25 113.25,198.35"/>
    </edge>
    <edge id=":0_3" function="internal">
        <lane id=":0_3_0" index="0" speed="50.00" length="2.41" shape="111.65,196.75 110.82,197.99 110.00,198.40"/>
    </edge>
    <edge id=":0_5" function="internal">
        <lane id=":0_5_0" index="0" speed="50.00" length="2.41" shape="110.00,198.40 109.17,197.99 108.35,196.75"/>
    </edge>
    <edge id=":1_0" function="internal">
        <lane id=":1_0_0" index="0" speed="50.00" length="9.50" shape="214.75,201.65 205.25,201.65"/>
    </edge>
    <edge id=":1_1" function="internal">
        <lane id=":1_1_0" index="0" speed="50.00" length="7.14" shape="214.75,201.65 211.95,201.25 209.95,200.05 208.93,198.35"/>
    </edge>
    <edge id=":1_9" function="internal">
        <lane id=":1_9_0" index="0" speed="50.00" length="3.18" shape="208.93,198.35 208.75,198.05 208.35,195.25"/>
    </edge>
    <edge id=":1_2" function="internal">
        <lane id=":1_2_0" index="0" speed="50.00" length="2.41" shape="214.75,201.65 213.51,200.83 213.10,200.00"/>
    </edge>
    <edge id=":1_10" function="internal">
        <lane id=":1_10_0" index="0" speed="50.00" length="2.41" shape="213.10,200.00 213.51,199.18 214.75,198.35"/>
    </edge>
    <edge id=":1_3" function="internal">
        <lane id=":1_3_0" index="0" speed="50.00" length="5.00" shape="211.65,195.25 211.84,196.61 212.43,197.58 213.39,198.16 214.75,198.35"/>
    </edge>
    <edge id=":1_4" function="internal">
        <lane id=":1_4_0" index="0" speed="50.00" length="10.32" shape="211.65,195.25 211.25,198.05 210.05,200.05 208.05,201.25 205.25,201.65"/>
    </edge>
    <edge id=":1_5" function="internal">
        <lane id=":1_5_0" index="0" speed="50.00" length="4.82" shape="211.65,195.25 210.83,196.49 210.00,196.90 209.18,196.49 208.35,195.25"/>
    </edge>
    <edge id=":1_6" function="internal">
        <lane id=":1_6_0" index="0" speed="50.00" length="5.00" shape="205.25,198.35 206.61,198.16 207.57,197.57 208.16,196.61 208.35,195.25"/>
    </edge>
    <edge id=":1_7" function="internal">
        <lane id=":1_7_0" index="0" speed="50.00" length="9.50" shape="205.25,198.35 214.75,198.35"/>
    </edge>
    <edge id=":1_8" function="internal">
        <lane id=":1_8_0" index="0" speed="50.00" length="2.41" shape="205.25,198.35 206.49,199.17 206.90,200.00"/>
    </edge>
    <edge id=":1_11" function="internal">
        <lane id=":1_11_0" index="0" speed="50.00" length="2.41" shape="206.90,200.00 206.49,200.82 205.25,201.65"/>
    </edge>
    <edge id=":10_0" function="internal">
        <lane id=":10_0_0" index="0" speed="50.00" length="7.90" shape="108.35,3.25 108.66,1.11 109.57,-0.42 111.11,-1.34 113.25,-1.65"/>
    </edge>
    <edge id=":10_1" function="internal">
        <lane id=":10_1_0" index="0" speed="50.00" length="2.41" shape="108.35,3.25 109.18,2.01 110.00,1.60"/>
    </edge>
    <edge id=":10_4" function="internal">
        <lane id=":10_4_0" index="0" speed="50.00" length="2.41" shape="110.00,1.60 110.83,2.01 111.65,3.25"/>
    </edge>
    <edge id=":10_2" function="internal">
        <lane id=":10_2_0" index="0" speed="50.00" length="2.58" shape="113.25,1.65 112.55,1.75 112.05,2.05 111.75,2.55 111.65,3.25"/>
    </edge>
    <edge id=":10_3" function="internal">
        <lane id=":10_3_0" index="0" speed="50.00" length="2.41" shape="113.25,1.65 112.01,0.82 111.60,-0.00"/>
    </edge>
    <edge id=":10_5" function="internal">
        <lane id=":10_5_0" index="0" speed="50.00" length="2.41" shape="111.60,-0.00 112.01,-0.83 113.25,-1.65"/>
    </edge>
    <edge id=":11_0" function="internal">
        <lane id=":11_0_0" index="0" speed="50.00" length="5.00" shape="208.35,4.75 208.16,3.39 207.57,2.43 206.61,1.84 205.25,1.65"/>
    </edge>
    <edge id=":11_1" function="internal">
        <lane id=":11_1_0" index="0" speed="50.00" length="10.32" shape="208.35,4.75 208.75,1.95 209.95,-0.05 211.95,-1.25 214.75,-1.65"/>
    </edge>
    <edge id=":11_2" function="internal">
        <lane id=":11_2_0" index="0" speed="50.00" length="4.82" shape="208.35,4.75 209.17,3.51 210.00,3.10 210.82,3.51 211.65,4.75"/>
    </edge>
    <edge id=":11_3" function="internal">
        <lane id=":11_3_0" index="0" speed="50.00" length="5.00" shape="214.75,1.65 213.39,1.84 212.43,2.42 211.84,3.39 211.65,4.75"/>
    </edge>
    <edge id=":11_4" function="internal">
        <lane id=":11_4_0" index="0" speed="50.00" length="9.50" shape="214.75,1.65 205.25,1.65"/>
    </edge>
    <edge id=":11_5" function="internal">
        <lane id=":11_5_0" index="0" speed="50.00" length="2.41" shape="214.75,1.65 213.51,0.83 213.10,0.00"/>
    </edge>
    <edge id=":11_9" function="internal">
        <lane id=":11_9_0" index="0" speed="50.00" length="2.41" shape="213.10,0.00 213.51,-0.82 214.75,-1.65"/>
    </edge>
    <edge id=":11_6" function="internal">
        <lane id=":11_6_0" index="0" speed="50.00" length="9.50" shape="205.25,-1.65 214.75,-1.65"/>
    </edge>
    <edge id=":11_7" function="internal">
        <lane id=":11_7_0" index="0" speed="50.00" length="7.14" shape="205.25,-1.65 208.05,-1.25 210.05,-0.05 211.07,1.65"/>
    </edge>
    <edge id=":11_10" function="internal">
        <lane id=":11_10_0" index="0" speed="50.00" length="3.18" shape="211.07,1.65 211.25,1.95 211.65,4.75"/>
    </edge>
    <edge id=":11_8" function="internal">
        <lane id=":11_8_0" index="0" speed="50.00" length="2.41" shape="205.25,-1.65 206.49,-0.83 206.90,-0.00"/>
    </edge>
    <edge id=":11_11" function="internal">
        <lane id=":11_11_0" index="0" speed="50.00" length="2.41" shape="206.90,-0.00 206.49,0.82 205.25,1.65"/>
    </edge>
    <edge id=":12_0" function="internal">
        <lane id=":12_0_0" index="0" speed="50.00" length="5.00" shape="308.35,4.75 308.16,3.39 307.57,2.43 306.61,1.84 305.25,1.65"/>
    </edge>
    <edge id=":12_1" function="internal">
        <lane id=":12_1_0" index="0" speed="50.00" length="3.18" shape="308.35,4.75 308.75,1.95 308.93,1.65"/>
    </edge>
    <edge id=":12_9" function="internal">
        <lane id=":12_9_0" index="0" speed="50.00" length="7.14" shape="308.93,1.65 309.95,-0.05 311.95,-1.25 314.75,-1.65"/>
    </edge>
    <edge id=":12_2" function="internal">
        <lane id=":12_2_0" index="0" speed="50.00" length="2.41" shape="308.35,4.75 309.17,3.51 310.00,3.10"/>
    </edge>
    <edge id=":12_10" function="internal">
        <lane id=":12_10_0" index="0" speed="50.00" length="2.41" shape="310.00,3.10 310.82,3.51 311.65,4.75"/>
    </edge>
    <edge id=":12_3" function="internal">
        <lane id=":12_3_0" index="0" speed="50.00" length="5.00" shape="314.75,1.65 313.39,1.84 312.43,2.42 311.84,3.39 311.65,4.75"/>
    </edge>
    <edge id=":12_4" function="internal">
        <lane id=":12_4_0" index="0" speed="50.00" length="9.50" shape="314.75,1.65 305.25,1.65"/>
    </edge>
    <edge id=":12_5" function="internal">
        <lane id=":12_5_0" index="0" speed="50.00" length="2.41" shape="314.75,1.65 313.51,0.83 313.10,0.00"/>
    </edge>
    <edge id=":12_11" function="internal">
        <lane id=":12_11_0" index="0" speed="50.00" length="2.41" shape="313.10,0.00 313.51,-0.82 314.75,-1.65"/>
    </edge>
    <edge id=":12_6" function="internal">
        <lane id=":12_6_0" index="0" speed="50.00" length="9.50" shape="305.25,-1.65 314.75,-1.65"/>
    </edge>
    <edge id=":12_7" function="internal">
        <lane id=":12_7_0" index="0" speed="50.00" length="7.14" shape="305.25,-1.65 308.05,-1.25 310.05,-0.05 311.07,1.65"/>
    </edge>
    <edge id=":12_12" function="internal">
        <lane id=":12_12_0" index="0" speed="50.00" length="3.18" shape="311.07,1.65 311.25,1.95 311.65,4.75"/>
    </edge>
    <edge id=":12_8" function="internal">
        <lane id=":12_8_0" index="0" speed="50.00" length="2.41" shape="305.25,-1.65 306.49,-0.83 306.90,-0.00"/>
    </edge>
    <edge id=":12_13" function="internal">
        <lane id=":12_13_0" index="0" speed="50.00" length="2.41" shape="306.90,-0.00 306.49,0.82 305.25,1.65"/>
    </edge>
    <edge id=":13_0" function="internal">
        <lane id=":13_0_0" index="0" speed="50.00" length="2.58" shape="408.35,3.25 408.25,2.55 407.95,2.05 407.45,1.75 406.75,1.65"/>
    </edge>
    <edge id=":13_1" function="internal">
        <lane id=":13_1_0" index="0" speed="50.00" length="2.41" shape="408.35,3.25 409.17,2.01 410.00,1.60"/>
    </edge>
    <edge id=":13_4" function="internal">
        <lane id=":13_4_0" index="0" speed="50.00" length="2.41" shape="410.00,1.60 410.82,2.01 411.65,3.25"/>
    </edge>
    <edge id=":13_2" function="internal">
        <lane id=":13_2_0" index="0" speed="50.00" length="7.90" shape="406.75,-1.65 408.89,-1.34 410.43,-0.42 411.34,1.11 411.65,3.25"/>
    </edge>
    <edge id=":13_3" function="internal">
        <lane id=":13_3_0" index="0" speed="50.00" length="2.41" shape="406.75,-1.65 407.99,-0.83 408.40,-0.00"/>
    </edge>
    <edge id=":13_5" function="internal">
        <lane id=":13_5_0" index="0" speed="50.00" length="2.41" shape="408.40,-0.00 407.99,0.82 406.75,1.65"/>
    </edge>
    <edge id=":2_0" function="internal">
        <lane id=":2_0_0" index="0" speed="50.00" length="9.50" shape="314.75,201.65 305.25,201.65"/>
    </edge>
    <edge id=":2_1" function="internal">
        <lane id=":2_1_0" index="0" speed="50.00" length="7.14" shape="314.75,201.65 311.95,201.25 309.95,200.05 308.93,198.35"/>
    </edge>
    <edge id=":2_9" function="internal">
        <lane id=":2_9_0" index="0" speed="50.00" length="3.18" shape="308.93,198.35 308.75,198.05 308.35,195.25"/>
    </edge>
    <edge id=":2_2" function="internal">
        <lane id=":2_2_0" index="0" speed="50.00" length="2.41" shape="314.75,201.65 313.51,200.83 313.10,200.00"/>
    </edge>
    <edge id=":2_10" function="internal">
        <lane id=":2_10_0" index="0" speed="50.00" length="2.41" shape="313.10,200.00 313.51,199.18 314.75,198.35"/>
    </edge>
    <edge id=":2_3" function="internal">
        <lane id=":2_3_0" index="0" speed="50.00" length="5.00" shape="311.65,195.25 311.84,196.61 312.43,197.58 313.39,198.16 314.75,198.35"/>
    </edge>
    <edge id=":2_4" function="internal">
        <lane id=":2_4_0" index="0" speed="50.00" length="3.18" shape="311.65,195.25 311.25,198.05 311.07,198.35"/>
    </edge>
    <edge id=":2_11" function="internal">
        <lane id=":2_11_0" index="0" speed="50.00" length="7.14" shape="311.07,198.35 310.05,200.05 308.05,201.25 305.25,201.65"/>
    </edge>
    <edge id=":2_5" function="internal">
        <lane id=":2_5_0" index="0" speed="50.00" length="2.41" shape="311.65,195.25 310.83,196.49 310.00,196.90"/>
    </edge>
    <edge id=":2_12" function="internal">
        <lane id=":2_12_0" index="0" speed="50.00" length="2.41" shape="310.00,196.90 309.18,196.49 308.35,195.25"/>
    </edge>
    <edge id=":2_6" function="internal">
        <lane id=":2_6_0" index="0" speed="50.00" length="5.00" shape="305.25,198.35 306.61,198.16 307.57,197.57 308.16,196.61 308.35,195.25"/>
    </edge>
    <edge id=":2_7" function="internal">
        <lane id=":2_7_0" index="0" speed="50.00" length="9.50" shape="305.25,198.35 314.75,198.35"/>
    </edge>
    <edge id=":2_8" function="internal">
        <lane id=":2_8_0" index="0" speed="50.00" length="2.41" shape="305.25,198.35 306.49,199.17 306.90,200.00"/>
    </edge>
    <edge id=":2_13" function="internal">
        <lane id=":2_13_0" index="0" speed="50.00" length="2.41" shape="306.90,200.00 306.49,200.82 305.25,201.65"/>
    </edge>
    <edge id=":3_0" function="internal">
        <lane id=":3_0_0" index="0" speed="50.00" length="7.90" shape="411.65,196.75 411.34,198.89 410.43,200.42 408.89,201.34 406.75,201.65"/>
    </edge>
    <edge id=":3_1" function="internal">
        <lane id=":3_1_0" index="0" speed="50.00" length="2.41" shape="411.65,196.75 410.83,197.99 410.00,198.40"/>
    </edge>
    <edge id=":3_4" function="internal">
        <lane id=":3_4_0" index="0" speed="50.00" length="2.41" shape="410.00,198.40 409.18,197.99 408.35,196.75"/>
    </edge>
    <edge id=":3_2" function="internal">
        <lane id=":3_2_0" index="0" speed="50.00" length="2.58" shape="406.75,198.35 407.45,198.25 407.95,197.95 408.25,197.45 408.35,196.75"/>
    </edge>
    <edge id=":3_3" function="internal">
        <lane id=":3_3_0" index="0" speed="50.00" length="2.41" shape="406.75,198.35 407.99,199.18 408.40,200.00"/>
    </edge>
    <edge id=":3_5" function="internal">
        <lane id=":3_5_0" index="0" speed="50.00" length="2.41" shape="408.40,200.00 407.99,200.83 406.75,201.65"/>
    </edge>
    <edge id=":4_0" function="internal">
        <lane id=":4_0_0" index="0" speed="50.00" length="2.41" shape="11.50,101.65 10.26,100.83 9.85,100.00"/>
    </edge>
    <edge id=":4_2" function="internal">
        <lane id=":4_2_0" index="0" speed="50.00" length="2.41" shape="9.85,100.00 10.26,99.18 11.50,98.35"/>
    </edge>
    <edge id=":4_1" function="internal">
        <lane id=":4_1_0" index="0" speed="50.00" length="3.00" shape="8.50,98.35 11.50,98.35"/>
    </edge>
    <edge id=":5_0" function="internal">
        <lane id=":5_0_0" index="0" speed="50.00" length="5.00" shape="108.35,104.75 108.16,103.39 107.57,102.43 106.61,101.84 105.25,101.65"/>
    </edge>
    <edge id=":5_1" function="internal">
        <lane id=":5_1_0" index="0" speed="50.00" length="9.50" shape="108.35,104.75 108.35,95.25"/>
    </edge>
    <edge id=":5_2" function="internal">
        <lane id=":5_2_0" index="0" speed="50.00" length="7.14" shape="108.35,104.75 108.75,101.95 109.95,99.95 111.65,98.93"/>
    </edge>
    <edge id=":5_16" function="internal">
        <lane id=":5_16_0" index="0" speed="50.00" length="3.18" shape="111.65,98.93 111.95,98.75 114.75,98.35"/>
    </edge>
    <edge id=":5_3" function="internal">
        <lane id=":5_3_0" index="0" speed="50.00" length="2.41" shape="108.35,104.75 109.18,103.51 110.00,103.10"/>
    </edge>
    <edge id=":5_17" function="internal">
        <lane id=":5_17_0" index="0" speed="50.00" length="2.41" shape="110.00,103.10 110.83,103.51 111.65,104.75"/>
    </edge>
    <edge id=":5_4" function="internal">
        <lane id=":5_4_0" index="0" speed="50.00" length="5.00" shape="114.75,101.65 113.39,101.84 112.43,102.43 111.84,103.39 111.65,104.75"/>
    </edge>
    <edge id=":5_5" function="internal">
        <lane id=":5_5_0" index="0" speed="50.00" length="9.50" shape="114.75,101.65 105.25,101.65"/>
    </edge>
    <edge id=":5_6" function="internal">
        <lane id=":5_6_0" index="0" speed="50.00" length="10.32" shape="114.75,101.65 111.95,101.25 109.95,100.05 108.75,98.05 108.35,95.25"/>
    </edge>
    <edge id=":5_7" function="internal">
        <lane id=":5_7_0" index="0" speed="50.00" length="4.82" shape="114.75,101.65 113.51,100.83 113.10,100.00 113.51,99.18 114.75,98.35"/>
    </edge>
    <edge id=":5_8" function="internal">
        <lane id=":5_8_0" index="0" speed="50.00" length="5.00" shape="111.65,95.25 111.84,96.61 112.43,97.57 113.39,98.16 114.75,98.35"/>
    </edge>
    <edge id=":5_9" function="internal">
        <lane id=":5_9_0" index="0" speed="50.00" length="9.50" shape="111.65,95.25 111.65,104.75"/>
    </edge>
    <edge id=":5_10" function="internal">
        <lane id=":5_10_0" index="0" speed="50.00" length="7.14" shape="111.65,95.25 111.25,98.05 110.05,100.05 108.35,101.07"/>
    </edge>
    <edge id=":5_18" function="internal">
        <lane id=":5_18_0" index="0" speed="50.00" length="3.18" shape="108.35,101.07 108.05,101.25 105.25,101.65"/>
    </edge>
    <edge id=":5_11" function="internal">
        <lane id=":5_11_0" index="0" speed="50.00" length="2.41" shape="111.65,95.25 110.82,96.49 110.00,96.90"/>
    </edge>
    <edge id=":5_19" function="internal">
        <lane id=":5_19_0" index="0" speed="50.00" length="2.41" shape="110.00,96.90 109.17,96.49 108.35,95.25"/>
    </edge>
    <edge id=":5_12" function="internal">
        <lane id=":5_12_0" index="0" speed="50.00" length="5.00" shape="105.25,98.35 106.61,98.16 107.57,97.57 108.16,96.61 108.35,95.25"/>
    </edge>
    <edge id=":5_13" function="internal">
        <lane id=":5_13_0" index="0" speed="50.00" length="9.50" shape="105.25,98.35 114.75,98.35"/>
    </edge>
    <edge id=":5_14" function="internal">
        <lane id=":5_14_0" index="0" speed="50.00" length="10.32" shape="105.25,98.35 108.05,98.75 110.05,99.95 111.25,101.95 111.65,104.75"/>
    </edge>
    <edge id=":5_15" function="internal">
        <lane id=":5_15_0" index="0" speed="50.00" length="4.82" shape="105.25,98.35 106.49,99.17 106.90,100.00 106.49,100.82 105.25,101.65"/>
    </edge>
    <edge id=":6_0" function="internal">
        <lane id=":6_0_0" index="0" speed="50.00" length="5.00" shape="208.35,104.75 208.16,103.39 207.57,102.43 206.61,101.84 205.25,101.65"/>
    </edge>
    <edge id=":6_1" function="internal">
        <lane id=":6_1_0" index="0" speed="50.00" length="9.50" shape="208.35,104.75 208.35,95.25"/>
    </edge>
    <edge id=":6_2" function="internal">
        <lane id=":6_2_0" index="0" speed="50.00" length="7.14" shape="208.35,104.75 208.75,101.95 209.95,99.95 211.65,98.93"/>
    </edge>
    <edge id=":6_16" function="internal">
        <lane id=":6_16_0" index="0" speed="50.00" length="3.18" shape="211.65,98.93 211.95,98.75 214.75,98.35"/>
    </edge>
    <edge id=":6_3" function="internal">
        <lane id=":6_3_0" index="0" speed="50.00" length="2.41" shape="208.35,104.75 209.17,103.51 210.00,103.10"/>
    </edge>
    <edge id=":6_17" function="internal">
        <lane id=":6_17_0" index="0" speed="50.00" length="2.41" shape="210.00,103.10 210.82,103.51 211.65,104.75"/>
    </edge>
    <edge id=":6_4" function="internal">
        <lane id=":6_4_0" index="0" speed="50.00" length="5.00" shape="214.75,101.65 213.39,101.84 212.43,102.43 211.84,103.39 211.65,104.75"/>
    </edge>
    <edge id=":6_5" function="internal">
        <lane id=":6_5_0" index="0" speed="50.00" length="9.50" shape="214.75,101.65 205.25,101.65"/>
    </edge>
    <edge id=":6_6" function="internal">
        <lane id=":6_6_0" index="0" speed="50.00" length="10.32" shape="214.75,101.65 211.95,101.25 209.95,100.05 208.75,98.05 208.35,95.25"/>
    </edge>
    <edge id=":6_7" function="internal">
        <lane id=":6_7_0" index="0" speed="50.00" length="4.82" shape="214.75,101.65 213.51,100.83 213.10,100.00 213.51,99.18 214.75,98.35"/>
    </edge>
    <edge id=":6_8" function="internal">
        <lane id=":6_8_0" index="0" speed="50.00" length="5.00" shape="211.65,95.25 211.84,96.61 212.43,97.57 213.39,98.16 214.75,98.35"/>
    </edge>
    <edge id=":6_9" function="internal">
        <lane id=":6_9_0" index="0" speed="50.00" length="9.50" shape="211.65,95.25 211.65,104.75"/>
    </edge>
    <edge id=":6_10" function="internal">
        <lane id=":6_10_0" index="0" speed="50.00" length="7.14" shape="211.65,95.25 211.25,98.05 210.05,100.05 208.35,101.07"/>
    </edge>
    <edge id=":6_18" function="internal">
        <lane id=":6_18_0" index="0" speed="50.00" length="3.18" shape="208.35,101.07 208.05,101.25 205.25,101.65"/>
    </edge>
    <edge id=":6_11" function="internal">
        <lane id=":6_11_0" index="0" speed="50.00" length="2.41" shape="211.65,95.25 210.83,96.49 210.00,96.90"/>
    </edge>
    <edge id=":6_19" function="internal">
        <lane id=":6_19_0" index="0" speed="50.00" length="2.41" shape="210.00,96.90 209.18,96.49 208.35,95.25"/>
    </edge>
    <edge id=":6_12" function="internal">
        <lane id=":6_12_0" index="0" speed="50.00" length="5.00" shape="205.25,98.35 206.61,98.16 207.57,97.57 208.16,96.61 208.35,95.25"/>
    </edge>
    <edge id=":6_13" function="internal">
        <lane id=":6_13_0" index="0" speed="50.00" length="9.50" shape="205.25,98.35 214.75,98.35"/>
    </edge>
    <edge id=":6_14" function="internal">
        <lane id=":6_14_0" index="0" speed="50.00" length="10.32" shape="205.25,98.35 208.05,98.75 210.05,99.95 211.25,101.95 211.65,104.75"/>
    </edge>
    <edge id=":6_15" function="internal">
        <lane id=":6_15_0" index="0" speed="50.00" length="4.82" shape="205.25,98.35 206.49,99.17 206.90,100.00 206.49,100.82 205.25,101.65"/>
    </edge>
    <edge id=":7_0" function="internal">
        <lane id=":7_0_0" index="0" speed="50.00" length="5.00" shape="308.35,104.75 308.16,103.39 307.57,102.43 306.61,101.84 305.25,101.65"/>
    </edge>
    <edge id=":7_1" function="internal">
        <lane id=":7_1_0" index="0" speed="50.00" length="9.50" shape="308.35,104.75 308.35,95.25"/>
    </edge>
    <edge id=":7_2" function="internal">
        <lane id=":7_2_0" index="0" speed="50.00" length="3.18" shape="308.35,104.75 308.75,101.95 308.93,101.65"/>
    </edge>
    <edge id=":7_16" function="internal">
        <lane id=":7_16_0" index="0" speed="50.00" length="7.14" shape="308.93,101.65 309.95,99.95 311.95,98.75 314.75,98.35"/>
    </edge>
    <edge id=":7_3" function="internal">
        <lane id=":7_3_0" index="0" speed="50.00" length="2.41" shape="308.35,104.75 309.17,103.51 310.00,103.10"/>
    </edge>
    <edge id=":7_17" function="internal">
        <lane id=":7_17_0" index="0" speed="50.00" length="2.41" shape="310.00,103.10 310.82,103.51 311.65,104.75"/>
    </edge>
    <edge id=":7_4" function="internal">
        <lane id=":7_4_0" index="0" speed="50.00" length="5.00" shape="314.75,101.65 313.39,101.84 312.43,102.43 311.84,103.39 311.65,104.75"/>
    </edge>
    <edge id=":7_5" function="internal">
        <lane id=":7_5_0" index="0" speed="50.00" length="9.50" shape="314.75,101.65 305.25,101.65"/>
    </edge>
    <edge id=":7_6" function="internal">
        <lane id=":7_6_0" index="0" speed="50.00" length="3.18" shape="314.75,101.65 311.95,101.25 311.65,101.07"/>
    </edge>
    <edge id=":7_18" function="internal">
        <lane id=":7_18_0" index="0" speed="50.00" length="7.14" shape="311.65,101.07 309.95,100.05 308.75,98.05 308.35,95.25"/>
    </edge>
    <edge id=":7_7" function="internal">
        <lane id=":7_7_0" index="0" speed="50.00" length="2.41" shape="314.75,101.65 313.51,100.83 313.10,100.00"/>
    </edge>
    <edge id=":7_19" function="internal">
        <lane id=":7_19_0" index="0" speed="50.00" length="2.41" shape="313.10,100.00 313.51,99.18 314.75,98.35"/>
    </edge>
    <edge id=":7_8" function="internal">
        <lane id=":7_8_0" index="0" speed="50.00" length="5.00" shape="311.65,95.25 311.84,96.61 312.43,97.57 313.39,98.16 314.75,98.35"/>
    </edge>
    <edge id=":7_9" function="internal">
        <lane id=":7_9_0" index="0" speed="50.00" length="9.50" shape="311.65,95.25 311.65,104.75"/>
    </edge>
    <edge id=":7_10" function="internal">
        <lane id=":7_10_0" index="0" speed="50.00" length="3.18" shape="311.65,95.25 311.25,98.05 311.07,98.35"/>
    </edge>
    <edge id=":7_20" function="internal">
        <lane id=":7_20_0" index="0" speed="50.00" length="7.14" shape="311.07,98.35 310.05,100.05 308.05,101.25 305.25,101.65"/>
    </edge>
    <edge id=":7_11" function="internal">
        <lane id=":7_11_0" index="0" speed="50.00" length="2.41" shape="311.65,95.25 310.83,96.49 310.00,96.90"/>
    </edge>
    <edge id=":7_21" function="internal">
        <lane id=":7_21_0" index="0" speed="50.00" length="2.41" shape="310.00,96.90 309.18,96.49 308.35,95.25"/>
    </edge>
    <edge id=":7_12" function="internal">
        <lane id=":7_12_0" index="0" speed="50.00" length="5.00" shape="305.25,98.35 306.61,98.16 307.57,97.57 308.16,96.61 308.35,95.25"/>
    </edge>
    <edge id=":7_13" function="internal">
        <lane id=":7_13_0" index="0" speed="50.00" length="9.50" shape="305.25,98.35 314.75,98.35"/>
    </edge>
    <edge id=":7_14" function="internal">
        <lane id=":7_14_0" index="0" speed="50.00" length="3.18" shape="305.25,98.35 308.05,98.75 308.35,98.93"/>
    </edge>
    <edge id=":7_22" function="internal">
        <lane id=":7_22_0" index="0" speed="50.00" length="7.14" shape="308.35,98.93 310.05,99.95 311.25,101.95 311.65,104.75"/>
    </edge>
    <edge id=":7_15" function="internal">
        <lane id=":7_15_0" index="0" speed="50.00" length="2.41" shape="305.25,98.35 306.49,99.17 306.90,100.00"/>
    </edge>
    <edge id=":7_23" function="internal">
        <lane id=":7_23_0" index="0" speed="50.00" length="2.41" shape="306.90,100.00 306.49,100.82 305.25,101.65"/>
    </edge>
    <edge id=":8_0" function="internal">
        <lane id=":8_0_0" index="0" speed="50.00" length="5.00" shape="408.35,104.75 408.16,103.39 407.57,102.43 406.61,101.84 405.25,101.65"/>
    </edge>
    <edge id=":8_1" function="internal">
        <lane id=":8_1_0" index="0" speed="50.00" length="9.50" shape="408.35,104.75 408.35,95.25"/>
    </edge>
    <edge id=":8_2" function="internal">
        <lane id=":8_2_0" index="0" speed="50.00" length="7.14" shape="408.35,104.75 408.75,101.95 409.95,99.95 411.65,98.93"/>
    </edge>
    <edge id=":8_16" function="internal">
        <lane id=":8_16_0" index="0" speed="50.00" length="3.18" shape="411.65,98.93 411.95,98.75 414.75,98.35"/>
    </edge>
    <edge id=":8_3" function="internal">
        <lane id=":8_3_0" index="0" speed="50.00" length="2.41" shape="408.35,104.75 409.17,103.51 410.00,103.10"/>
    </edge>
    <edge id=":8_17" function="internal">
        <lane id=":8_17_0" index="0" speed="50.00" length="2.41" shape="410.00,103.10 410.82,103.51 411.65,104.75"/>
    </edge>
    <edge id=":8_4" function="internal">
        <lane id=":8_4_0" index="0" speed="50.00" length="5.00" shape="414.75,101.65 413.39,101.84 412.43,102.43 411.84,103.39 411.65,104.75"/>
    </edge>
    <edge id=":8_5" function="internal">
        <lane id=":8_5_0" index="0" speed="50.00" length="9.50" shape="414.75,101.65 405.25,101.65"/>
    </edge>
    <edge id=":8_6" function="internal">
        <lane id=":8_6_0" index="0" speed="50.00" length="10.32" shape="414.75,101.65 411.95,101.25 409.95,100.05 408.75,98.05 408.35,95.25"/>
    </edge>
    <edge id=":8_7" function="internal">
        <lane id=":8_7_0" index="0" speed="50.00" length="4.82" shape="414.75,101.65 413.51,100.83 413.10,100.00 413.51,99.18 414.75,98.35"/>
    </edge>
    <edge id=":8_8" function="internal">
        <lane id=":8_8_0" index="0" speed="50.00" length="5.00" shape="411.65,95.25 411.84,96.61 412.43,97.57 413.39,98.16 414.75,98.35"/>
    </edge>
    <edge id=":8_9" function="internal">
        <lane id=":8_9_0" index="0" speed="50.00" length="9.50" shape="411.65,95.25 411.65,104.75"/>
    </edge>
    <edge id=":8_10" function="internal">
        <lane id=":8_10_0" index="0" speed="50.00" length="7.14" shape="411.65,95.25 411.25,98.05 410.05,100.05 408.35,101.07"/>
    </edge>
    <edge id=":8_18" function="internal">
        <lane id=":8_18_0" index="0" speed="50.00" length="3.18" shape="408.35,101.07 408.05,101.25 405.25,101.65"/>
    </edge>
    <edge id=":8_11" function="internal">
        <lane id=":8_11_0" index="0" speed="50.00" length="2.41" shape="411.65,95.25 410.83,96.49 410.00,96.90"/>
    </edge>
    <edge id=":8_19" function="internal">
        <lane id=":8_19_0" index="0" speed="50.00" length="2.41" shape="410.00,96.90 409.18,96.49 408.35,95.25"/>
    </edge>
    <edge id=":8_12" function="internal">
        <lane id=":8_12_0" index="0" speed="50.00" length="5.00" shape="405.25,98.35 406.61,98.16 407.57,97.57 408.16,96.61 408.35,95.25"/>
    </edge>
    <edge id=":8_13" function="internal">
        <lane id=":8_13_0" index="0" speed="50.00" length="9.50" shape="405.25,98.35 414.75,98.35"/>
    </edge>
    <edge id=":8_14" function="internal">
        <lane id=":8_14_0" index="0" speed="50.00" length="10.32" shape="405.25,98.35 408.05,98.75 410.05,99.95 411.25,101.95 411.65,104.75"/>
    </edge>
    <edge id=":8_15" function="internal">
        <lane id=":8_15_0" index="0" speed="50.00" length="4.82" shape="405.25,98.35 406.49,99.17 406.90,100.00 406.49,100.82 405.25,101.65"/>
    </edge>
    <edge id=":9_0" function="internal">
        <lane id=":9_0_0" index="0" speed="50.00" length="3.00" shape="508.50,98.35 511.50,98.35"/>
    </edge>
    <edge id=":9_1" function="internal">
        <lane id=":9_1_0" index="0" speed="50.00" length="4.82" shape="508.50,98.35 509.74,99.17 510.15,100.00 509.74,100.82 508.50,101.65"/>
    </edge>

    <edge id="A1" from="0" to="1" priority="1" type="a">
        <lane id="A1_0" index="0" speed="50.00" length="92.00" shape="113.25,198.35 205.25,198.35"/>
    </edge>