<?xml version="1.0"?>
<!-- generated on 2014-10-31 11:14:49.329073 by $Id: randomTrips.py 10702 2011-06-23 18:35:57Z behrisch $ -->
<trips>
    <trip id="t0" depart="0" from="E2" to="B2" />
    <trip id="t1" depart="5" from="C1" to="F2" />
    <trip id="t2" depart="10" from="start" to="B2" />
    <trip id="t3" depart="15" from="C1" to="C3" />
    <trip id="t4" depart="20" from="E1" to="B3R" />
    <trip id="t5" depart="25" from="B3" to="D1R" />
    <trip id="t6" depart="30" from="D1R" to="E2R" />
    <trip id="t7" depart="35" from="C3" to="F2R" />
    <trip id="t8" depart="40" from="E1R" to="F2" />
    <trip id="t9" depart="45" from="B1R" to="G2" />
    <trip id="t10" depart="50" from="D1R" to="B0" />
    <trip id="t11" depart="55" from="start" to="A1" />
    <trip id="t12" depart="60" from="A3R" to="D1R" />
    <trip id="t13" depart="65" from="C2" to="F2R" />
    <trip id="t14" depart="70" from="G2R" to="D2" />
    <trip id="t15" depart="75" from="D1" to="E2" />
    <trip id="t16" depart="80" from="A3" to="G1" />
    <trip id="t17" depart="85" from="G1" to="B1R" />
    <trip id="t18" depart="90" from="C2" to="A3R" />
    <trip id="t19" depart="95" from="D2R" to="F1R" />
    <trip id="t20" depart="100" from="B3R" to="A2R" />
    <trip id="t21" depart="105" from="E2" to="G2R" />
    <trip id="t22" depart="110" from="D1R" to="A1R" />
    <trip id="t23" depart="115" from="E1R" to="E2" />
    <trip id="t24" depart="120" from="start" to="G2" />
    <trip id="t25" depart="125" from="B0R" to="end" />
    <trip id="t26" depart="130" from="D1R" to="A3R" />
    <trip id="t27" depart="135" from="A1" to="C1" />
    <trip id="t28" depart="140" from="E2" to="G2R" />
    <trip id="t29" depart="145" from="B1R" to="B2" />
    <trip id="t30" depart="150" from="B0R" to="B3" />
    <trip id="t31" depart="155" from="D1" to="A1" />
    <trip id="t32" depart="160" from="A2R" to="C2" />
    <trip id="t33" depart="165" from="C2" to="D1R" />
    <trip id="t34" depart="170" from="D1R" to="E2" />
    <trip id="t35" depart="175" from="C3" to="F1" />
    <trip id="t36" depart="180" from="end" to="B1" />
    <trip id="t37" depart="185" from="E2" to="B1R" />
    <trip id="t38" depart="190" from="B0R" to="A2R" />
    <trip id="t39" depart="195" from="D1" to="B4R" />
    <trip id="t40" depart="200" from="G2" to="G2R" />
    <trip id="t41" depart="205" from="F2R" to="B0" />
    <trip id="t42" depart="210" from="D2R" to="C2" />
    <trip id="t43" depart="215" from="E1" to="A2R" />
    <trip id="t44" depart="220" from="F2" to="C1" />
    <trip id="t45" depart="225" from="B1" to="G1R" />
    <trip id="t46" depart="230" from="C3R" to="G2R" />
    <trip id="t47" depart="235" from="A3" to="B1R" />
    <trip id="t48" depart="240" from="E1" to="F2" />
    <trip id="t49" depart="245" from="F2R" to="G2" />
    <trip id="t50" depart="250" from="C3R" to="B2" />
    <trip id="t51" depart="255" from="B4" to="E2R" />
    <trip id="t52" depart="260" from="D2R" to="A1" />
    <trip id="t53" depart="265" from="B3" to="C2R" />
    <trip id="t54" depart="270" from="E2R" to="B0" />
    <trip id="t55" depart="275" from="B2" to="B1R" />
    <trip id="t56" depart="280" from="A3R" to="D1R" />
    <trip id="t57" depart="285" from="C2" to="F2" />
    <trip id="t58" depart="290" from="A3" to="B4" />
    <trip id="t59" depart="295" from="F2" to="C3" />
    <trip id="t60" depart="300" from="B1R" to="F1" />
    <trip id="t61" depart="305" from="E2R" to="D2" />
    <trip id="t62" depart="310" from="D2" to="F2" />
    <trip id="t63" depart="315" from="A1" to="C1" />
    <trip id="t64" depart="320" from="C1" to="B4" />
    <trip id="t65" depart="325" from="A1R" to="G2" />
    <trip id="t66" depart="330" from="E2R" to="B2R" />
    <trip id="t67" depart="335" from="E1R" to="C2" />
    <trip id="t68" depart="340" from="end" to="A1" />
    <trip id="t69" depart="345" from="D1" to="F2R" />
    <trip id="t70" depart="350" from="F1" to="C1R" />
    <trip id="t71" depart="355" from="G2" to="A2R" />
    <trip id="t72" depart="360" from="C2" to="D1" />
    <trip id="t73" depart="365" from="B4R" to="D2R" />
    <trip id="t74" depart="370" from="F2R" to="B3" />
    <trip id="t75" depart="375" from="D1" to="G1" />
    <trip id="t76" depart="380" from="end" to="E1R" />
    <trip id="t77" depart="385" from="E1" to="G1" />
    <trip id="t78" depart="390" from="D1R" to="F2" />
    <trip id="t79" depart="395" from="B4" to="C3" />
    <trip id="t80" depart="400" from="C3" to="G2" />
    <trip id="t81" depart="405" from="D1R" to="C3R" />
    <trip id="t82" depart="410" from="B2R" to="A1R" />
    <trip id="t83" depart="415" from="B0R" to="A3" />
    <trip id="t84" depart="420" from="E2" to="C3" />
    <trip id="t85" depart="425" from="F2" to="G2R" />
    <trip id="t86" depart="430" from="F1R" to="B2" />
    <trip id="t87" depart="435" from="B1R" to="D1" />
    <trip id="t88" depart="440" from="end" to="start" />
    <trip id="t89" depart="445" from="D2" to="A3" />
    <trip id="t90" depart="450" from="B3R" to="F2" />
    <trip id="t91" depart="455" from="D1R" to="C2R" />
    <trip id="t92" depart="460" from="B2R" to="A2R" />
    <trip id="t93" depart="465" from="E2" to="end" />
    <trip id="t94" depart="470" from="A1R" to="start" />
    <trip id="t95" depart="475" from="A1" to="G2" />
    <trip id="t96" depart="480" from="F1R" to="C3R" />
    <trip id="t97" depart="485" from="B2R" to="B3R" />
    <trip id="t98" depart="490" from="E2R" to="A2" />
    <trip id="t99" depart="495" from="C3" to="E2" />
    <trip id="t100" depart="500" from="A3R" to="A3" />
    <trip id="t101" depart="505" from="A3" to="G2R" />
    <trip id="t102" depart="510" from="C2" to="C1R" />
    <trip id="t103" depart="515" from="B4R" to="B3" />
    <trip id="t104" depart="520" from="C2R" to="start" />
    <trip id="t105" depart="525" from="A2R" to="C1" />
    <trip id="t106" depart="530" from="A3" to="A2" />
    <trip id="t107" depart="535" from="C3" to="start" />
    <trip id="t108" depart="540" from="C2" to="A2" />
    <trip id="t109" depart="545" from="B2" to="F1R" />
    <trip id="t110" depart="550" from="B2R" to="D2R" />
    <trip id="t111" depart="555" from="C2" to="B4R" />
    <trip id="t112" depart="560" from="A3R" to="G2" />
    <trip id="t113" depart="565" from="G2R" to="A1" />
    <trip id="t114" depart="570" from="B1" to="A3" />
    <trip id="t115" depart="575" from="B4" to="C1R" />
    <trip id="t116" depart="580" from="A2" to="A2R" />
    <trip id="t117" depart="585" from="A3" to="F1" />
    <trip id="t118" depart="590" from="F2" to="B2" />
    <trip id="t119" depart="595" from="B0" to="B4R" />
    <trip id="t120" depart="600" from="E2" to="C1" />
    <trip id="t121" depart="605" from="G2R" to="F2" />
    <trip id="t122" depart="610" from="A3R" to="D1" />
    <trip id="t123" depart="615" from="B3" to="A3R" />
    <trip id="t124" depart="620" from="C3" to="A3R" />
    <trip id="t125" depart="625" from="C3R" to="A2R" />
    <trip id="t126" depart="630" from="B1" to="D1R" />
    <trip id="t127" depart="635" from="G2" to="B3R" />
    <trip id="t128" depart="640" from="B2R" to="E2" />
    <trip id="t129" depart="645" from="D1R" to="D2R" />
    <trip id="t130" depart="650" from="F1R" to="C3" />
    <trip id="t131" depart="655" from="G2" to="A2R" />
    <trip id="t132" depart="660" from="A2R" to="B2" />
    <trip id="t133" depart="665" from="A3R" to="D1" />
    <trip id="t134" depart="670" from="E1" to="E2" />
    <trip id="t135" depart="675" from="G1R" to="F2" />
    <trip id="t136" depart="680" from="C3R" to="C3R" />
    <trip id="t137" depart="685" from="C2R" to="E1" />
    <trip id="t138" depart="690" from="B2" to="B4" />
    <trip id="t139" depart="695" from="E2R" to="A3" />
    <trip id="t140" depart="700" from="A3" to="B3" />
    <trip id="t141" depart="705" from="start" to="A2R" />
    <trip id="t142" depart="710" from="C3R" to="D2" />
    <trip id="t143" depart="715" from="B1R" to="C2R" />
    <trip id="t144" depart="720" from="D1R" to="A2" />
    <trip id="t145" depart="725" from="D2R" to="E2R" />
    <trip id="t146" depart="730" from="F2R" to="start" />
    <trip id="t147" depart="735" from="C2" to="B3R" />
    <trip id="t148" depart="740" from="C2R" to="B3R" />
    <trip id="t149" depart="745" from="A2" to="G2R" />
    <trip id="t150" depart="750" from="B4R" to="C2R" />
    <trip id="t151" depart="755" from="end" to="B3" />
    <trip id="t152" depart="760" from="G1R" to="G1" />
    <trip id="t153" depart="765" from="G1" to="D2" />
    <trip id="t154" depart="770" from="B0" to="G1" />
    <trip id="t155" depart="775" from="C1R" to="A3R" />
    <trip id="t156" depart="780" from="B1" to="C1" />
    <trip id="t157" depart="785" from="C2" to="B1" />
    <trip id="t158" depart="790" from="A3R" to="A3" />
    <trip id="t159" depart="795" from="C3R" to="F2" />
    <trip id="t160" depart="800" from="E1" to="C3R" />
    <trip id="t161" depart="805" from="B4R" to="B0" />
    <trip id="t162" depart="810" from="C1" to="G2R" />
    <trip id="t163" depart="815" from="C3" to="E2R" />
    <trip id="t164" depart="820" from="D1R" to="G1R" />
    <trip id="t165" depart="825" from="A2" to="G1R" />
    <trip id="t166" depart="830" from="B2" to="B1R" />
    <trip id="t167" depart="835" from="C2" to="A1" />
    <trip id="t168" depart="840" from="D2R" to="E2" />
    <trip id="t169" depart="845" from="F1" to="A1R" />
    <trip id="t170" depart="850" from="A2" to="E2" />
    <trip id="t171" depart="855" from="B0R" to="start" />
    <trip id="t172" depart="860" from="C2" to="C2R" />
    <trip id="t173" depart="865" from="E2R" to="E1R" />
    <trip id="t174" depart="870" from="D2R" to="A1R" />
    <trip id="t175" depart="875" from="F2" to="D1" />
    <trip id="t176" depart="880" from="C3R" to="A1R" />
    <trip id="t177" depart="885" from="C2R" to="E2" />
    <trip id="t178" depart="890" from="A3R" to="A3" />
    <trip id="t179" depart="895" from="C3R" to="C1" />
    <trip id="t180" depart="900" from="A2R" to="A2" />
    <trip id="t181" depart="905" from="C2R" to="E2" />
    <trip id="t182" depart="910" from="A2R" to="G1R" />
    <trip id="t183" depart="915" from="B2" to="B4" />
    <trip id="t184" depart="920" from="C3" to="F1R" />
    <trip id="t185" depart="925" from="C3" to="G1R" />
    <trip id="t186" depart="930" from="F2R" to="B2" />
    <trip id="t187" depart="935" from="C2R" to="A3" />
    <trip id="t188" depart="940" from="B1" to="B4" />
    <trip id="t189" depart="945" from="B1" to="B1" />
    <trip id="t190" depart="950" from="G1" to="F2" />
    <trip id="t191" depart="955" from="G1R" to="D1R" />
    <trip id="t192" depart="960" from="E2" to="E2R" />
    <trip id="t193" depart="965" from="E2" to="E2R" />
    <trip id="t194" depart="970" from="B4R" to="C2R" />
    <trip id="t195" depart="975" from="E1R" to="F2R" />
    <trip id="t196" depart="980" from="F2" to="D2R" />
    <trip id="t197" depart="985" from="D1R" to="B2R" />
    <trip id="t198" depart="990" from="C1R" to="C1R" />
    <trip id="t199" depart="995" from="B2" to="B2R" />
    <trip id="t200" depart="1000" from="C3R" to="E2" />
    <trip id="t201" depart="1005" from="E1R" to="E1R" />
    <trip id="t202" depart="1010" from="A1" to="E2R" />
    <trip id="t203" depart="1015" from="E1R" to="B0" />
    <trip id="t204" depart="1020" from="D2" to="A2R" />
    <trip id="t205" depart="1025" from="G2" to="A3" />
    <trip id="t206" depart="1030" from="end" to="B0R" />
    <trip id="t207" depart="1035" from="C2R" to="E2" />
    <trip id="t208" depart="1040" from="E1R" to="B3" />
    <trip id="t209" depart="1045" from="D2" to="B4" />
    <trip id="t210" depart="1050" from="A2" to="B1" />
    <trip id="t211" depart="1055" from="C1" to="D2" />
    <trip id="t212" depart="1060" from="F2R" to="B1" />
    <trip id="t213" depart="1065" from="A2R" to="B3" />
    <trip id="t214" depart="1070" from="B1" to="B3" />
    <trip id="t215" depart="1075" from="C2R" to="C2R" />
    <trip id="t216" depart="1080" from="B2" to="G2" />
    <trip id="t217" depart="1085" from="G1" to="B1" />
    <trip id="t218" depart="1090" from="B4R" to="C3R" />
    <trip id="t219" depart="1095" from="A2R" to="B4R" />
    <trip id="t220" depart="1100" from="A3" to="F1" />
    <trip id="t221" depart="1105" from="start" to="B1R" />
    <trip id="t222" depart="1110" from="A3" to="C2" />
    <trip id="t223" depart="1115" from="F1" to="C1" />
    <trip id="t224" depart="1120" from="E2" to="A1" />
    <trip id="t225" depart="1125" from="B2R" to="D1R" />
    <trip id="t226" depart="1130" from="A3" to="B3R" />
    <trip id="t227" depart="1135" from="F1R" to="C3R" />
    <trip id="t228" depart="1140" from="F1R" to="end" />
    <trip id="t229" depart="1145" from="C2R" to="B1" />
    <trip id="t230" depart="1150" from="B2" to="D1" />
    <trip id="t231" depart="1155" from="A2" to="G2" />
    <trip id="t232" depart="1160" from="D1R" to="A1R" />
    <trip id="t233" depart="1165" from="B2R" to="G1" />
    <trip id="t234" depart="1170" from="C2R" to="C2" />
    <trip id="t235" depart="1175" from="E2R" to="B1R" />
    <trip id="t236" depart="1180" from="C1" to="D1R" />
    <trip id="t237" depart="1185" from="B4R" to="B4" />
    <trip id="t238" depart="1190" from="C3" to="C2R" />
    <trip id="t239" depart="1195" from="E2R" to="E2" />
    <trip id="t240" depart="1200" from="B4" to="F1R" />
    <trip id="t241" depart="1205" from="A1" to="start" />
    <trip id="t242" depart="1210" from="C2" to="E2R" />
    <trip id="t243" depart="1215" from="D2" to="C3" />
    <trip id="t244" depart="1220" from="B1" to="F1R" />
    <trip id="t245" depart="1225" from="D2R" to="C3R" />
    <trip id="t246" depart="1230" from="A1" to="B0R" />
    <trip id="t247" depart="1235" from="G1R" to="D1" />
    <trip id="t248" depart="1240" from="B3R" to="C1" />
    <trip id="t249" depart="1245" from="B3R" to="A3" />
    <trip id="t250" depart="1250" from="C2" to="C1R" />
    <trip id="t251" depart="1255" from="A2" to="B1R" />
    <trip id="t252" depart="1260" from="A3" to="D2" />
    <trip id="t253" depart="1265" from="A2" to="G2R" />
    <trip id="t254" depart="1270" from="A3R" to="B2R" />
    <trip id="t255" depart="1275" from="B1R" to="C3R" />
    <trip id="t256" depart="1280" from="D2R" to="C2" />
    <trip id="t257" depart="1285" from="A1" to="F2" />
    <trip id="t258" depart="1290" from="B2" to="E2" />
    <trip id="t259" depart="1295" from="D2" to="F1R" />
    <trip id="t260" depart="1300" from="A2R" to="D2R" />
    <trip id="t261" depart="1305" from="B2" to="E1" />
    <trip id="t262" depart="1310" from="A2R" to="A2" />
    <trip id="t263" depart="1315" from="F2" to="B1R" />
    <trip id="t264" depart="1320" from="B4R" to="F2R" />
    <trip id="t265" depart="1325" from="C2R" to="F2" />
    <trip id="t266" depart="1330" from="E1" to="G1" />
    <trip id="t267" depart="1335" from="B3" to="F2R" />
    <trip id="t268" depart="1340" from="F2R" to="C1R" />
    <trip id="t269" depart="1345" from="C2R" to="C2" />
    <trip id="t270" depart="1350" from="E2R" to="G2R" />
    <trip id="t271" depart="1355" from="B4R" to="F1R" />
    <trip id="t272" depart="1360" from="E2R" to="B3R" />
    <trip id="t273" depart="1365" from="B0R" to="A2" />
    <trip id="t274" depart="1370" from="B0R" to="B3" />
    <trip id="t275" depart="1375" from="C2R" to="B0" />
    <trip id="t276" depart="1380" from="C1" to="B4" />
    <trip id="t277" depart="1385" from="C1R" to="F2" />
    <trip id="t278" depart="1390" from="B3R" to="F1" />
    <trip id="t279" depart="1395" from="start" to="A2" />
    <trip id="t280" depart="1400" from="A3" to="B4" />
    <trip id="t281" depart="1405" from="F2" to="C3" />
    <trip id="t282" depart="1410" from="B2R" to="C2" />
    <trip id="t283" depart="1415" from="G2R" to="F2R" />
    <trip id="t284" depart="1420" from="D1" to="C1R" />
    <trip id="t285" depart="1425" from="end" to="F2" />
    <trip id="t286" depart="1430" from="D1R" to="B0" />
    <trip id="t287" depart="1435" from="G1R" to="start" />
    <trip id="t288" depart="1440" from="B4R" to="G1R" />
    <trip id="t289" depart="1445" from="C1" to="F1R" />
    <trip id="t290" depart="1450" from="A2" to="D1R" />
    <trip id="t291" depart="1455" from="B4" to="F1R" />
    <trip id="t292" depart="1460" from="F2R" to="E1" />
    <trip id="t293" depart="1465" from="A3" to="A2R" />
    <trip id="t294" depart="1470" from="A2R" to="C3R" />
    <trip id="t295" depart="1475" from="A3R" to="C3" />
    <trip id="t296" depart="1480" from="C2R" to="B1R" />
    <trip id="t297" depart="1485" from="D1" to="A2R" />
    <trip id="t298" depart="1490" from="G1R" to="C2R" />
    <trip id="t299" depart="1495" from="D1R" to="C1" />
    <trip id="t300" depart="1500" from="B2" to="A2R" />
    <trip id="t301" depart="1505" from="end" to="E2R" />
    <trip id="t302" depart="1510" from="F2R" to="C2R" />
    <trip id="t303" depart="1515" from="E2R" to="D2R" />
    <trip id="t304" depart="1520" from="G1R" to="F1" />
    <trip id="t305" depart="1525" from="C1" to="F2R" />
    <trip id="t306" depart="1530" from="F1R" to="A2" />
    <trip id="t307" depart="1535" from="E2" to="B3" />
    <trip id="t308" depart="1540" from="F2R" to="G2" />
    <trip id="t309" depart="1545" from="C3" to="B2" />
    <trip id="t310" depart="1550" from="start" to="C1" />
    <trip id="t311" depart="1555" from="D2R" to="D1" />
    <trip id="t312" depart="1560" from="C3R" to="E2" />
    <trip id="t313" depart="1565" from="B4R" to="G2" />
    <trip id="t314" depart="1570" from="B3" to="A1R" />
    <trip id="t315" depart="1575" from="end" to="E1R" />
    <trip id="t316" depart="1580" from="B3R" to="B1" />
    <trip id="t317" depart="1585" from="B2R" to="C2" />
    <trip id="t318" depart="1590" from="G1" to="E2R" />
    <trip id="t319" depart="1595" from="F2" to="F1" />
    <trip id="t320" depart="1600" from="B2" to="A1" />
    <trip id="t321" depart="1605" from="C1" to="C1" />
    <trip id="t322" depart="1610" from="C3R" to="B2" />
    <trip id="t323" depart="1615" from="D2R" to="B2R" />
    <trip id="t324" depart="1620" from="B3R" to="C3" />
    <trip id="t325" depart="1625" from="C3R" to="G2" />
    <trip id="t326" depart="1630" from="B4R" to="F1" />
    <trip id="t327" depart="1635" from="D1R" to="A3" />
    <trip id="t328" depart="1640" from="G1R" to="E1R" />
    <trip id="t329" depart="1645" from="A2R" to="B0" />
    <trip id="t330" depart="1650" from="B0" to="G1R" />
    <trip id="t331" depart="1655" from="B2R" to="E1R" />
    <trip id="t332" depart="1660" from="E2R" to="C2" />
    <trip id="t333" depart="1665" from="C3R" to="B4" />
    <trip id="t334" depart="1670" from="B2R" to="B2" />
    <trip id="t335" depart="1675" from="end" to="G1R" />
    <trip id="t336" depart="1680" from="A1R" to="D1R" />
    <trip id="t337" depart="1685" from="A3R" to="D2" />
    <trip id="t338" depart="1690" from="end" to="B3R" />
    <trip id="t339" depart="1695" from="D1R" to="A2" />
    <trip id="t340" depart="1700" from="D2R" to="F1R" />
    <trip id="t341" depart="1705" from="F2R" to="E1R" />
    <trip id="t342" depart="1710" from="G1" to="C1R" />
    <trip id="t343" depart="1715" from="start" to="G2R" />
    <trip id="t344" depart="1720" from="G2" to="C2R" />
    <trip id="t345" depart="1725" from="G2R" to="D2" />
    <trip id="t346" depart="1730" from="E1" to="E1" />
    <trip id="t347" depart="1735" from="F2R" to="A2" />
    <trip id="t348" depart="1740" from="B2R" to="A3R" />
    <trip id="t349" depart="1745" from="E2" to="B1R" />
    <trip id="t350" depart="1750" from="B2" to="B0" />
    <trip id="t351" depart="1755" from="C2R" to="B2R" />
    <trip id="t352" depart="1760" from="C3" to="A2" />
    <trip id="t353" depart="1765" from="G2R" to="B0R" />
    <trip id="t354" depart="1770" from="A2R" to="start" />
    <trip id="t355" depart="1775" from="A2R" to="E2R" />
    <trip id="t356" depart="1780" from="G2R" to="A3R" />
    <trip id="t357" depart="1785" from="E1R" to="G2" />
    <trip id="t358" depart="1790" from="E1R" to="B0R" />
    <trip id="t359" depart="1795" from="B0R" to="A1R" />
    <trip id="t360" depart="1800" from="A2" to="G2R" />
    <trip id="t361" depart="1805" from="E1" to="A3" />
    <trip id="t362" depart="1810" from="B1R" to="C3" />
    <trip id="t363" depart="1815" from="B4" to="B0" />
    <trip id="t364" depart="1820" from="B0" to="F1R" />
    <trip id="t365" depart="1825" from="A3" to="C2R" />
    <trip id="t366" depart="1830" from="F2R" to="E2" />
    <trip id="t367" depart="1835" from="C2" to="F2" />
    <trip id="t368" depart="1840" from="A1R" to="B0R" />
    <trip id="t369" depart="1845" from="C2R" to="D1" />
    <trip id="t370" depart="1850" from="start" to="F1" />
    <trip id="t371" depart="1855" from="F2R" to="start" />
    <trip id="t372" depart="1860" from="C2" to="F2" />
    <trip id="t373" depart="1865" from="E1R" to="B0" />
    <trip id="t374" depart="1870" from="G2R" to="B2" />
    <trip id="t375" depart="1875" from="B2R" to="A1" />
    <trip id="t376" depart="1880" from="A3" to="G2" />
    <trip id="t377" depart="1885" from="A2R" to="start" />
    <trip id="t378" depart="1890" from="D1" to="D2R" />
    <trip id="t379" depart="1895" from="start" to="B2" />
    <trip id="t380" depart="1900" from="F2" to="E1R" />
    <trip id="t381" depart="1905" from="A2R" to="F2R" />
    <trip id="t382" depart="1910" from="start" to="E2R" />
    <trip id="t383" depart="1915" from="F1" to="G2" />
    <trip id="t384" depart="1920" from="C1R" to="C2R" />
    <trip id="t385" depart="1925" from="B1" to="A3" />
    <trip id="t386" depart="1930" from="start" to="E1" />
    <trip id="t387" depart="1935" from="F2R" to="end" />
    <trip id="t388" depart="1940" from="A3" to="E2R" />
    <trip id="t389" depart="1945" from="B4R" to="C3R" />
    <trip id="t390" depart="1950" from="start" to="B3R" />
    <trip id="t391" depart="1955" from="G2R" to="C1" />
    <trip id="t392" depart="1960" from="C1R" to="C2" />
    <trip id="t393" depart="1965" from="D1R" to="A2R" />
    <trip id="t394" depart="1970" from="C1" to="F1R" />
    <trip id="t395" depart="1975" from="start" to="B0" />
    <trip id="t396" depart="1980" from="C1R" to="B1R" />
    <trip id="t397" depart="1985" from="D2" to="B3R" />
    <trip id="t398" depart="1990" from="A3" to="D2R" />
    <trip id="t399" depart="1995" from="F2" to="F1" />
    <trip id="t400" depart="2000" from="E2" to="A2R" />
    <trip id="t401" depart="2005" from="E2R" to="B2" />
    <trip id="t402" depart="2010" from="B0R" to="A1" />
    <trip id="t403" depart="2015" from="C2" to="A3" />
    <trip id="t404" depart="2020" from="C3" to="G1R" />
    <trip id="t405" depart="2025" from="B3R" to="D2R" />
    <trip id="t406" depart="2030" from="A1" to="F2R" />
    <trip id="t407" depart="2035" from="C1R" to="C2R" />
    <trip id="t408" depart="2040" from="E1R" to="G1R" />
    <trip id="t409" depart="2045" from="C1" to="C2" />
    <trip id="t410" depart="2050" from="G2R" to="F2" />
    <trip id="t411" depart="2055" from="F1" to="C3R" />
    <trip id="t412" depart="2060" from="A1R" to="start" />
    <trip id="t413" depart="2065" from="F2R" to="E1" />
    <trip id="t414" depart="2070" from="C3R" to="A3" />
    <trip id="t415" depart="2075" from="G2" to="B2" />
    <trip id="t416" depart="2080" from="B0R" to="C3R" />
    <trip id="t417" depart="2085" from="E2" to="A1" />
    <trip id="t418" depart="2090" from="B0R" to="G1R" />
    <trip id="t419" depart="2095" from="G2" to="C3" />
    <trip id="t420" depart="2100" from="C1R" to="A3" />
    <trip id="t421" depart="2105" from="G2" to="C1R" />
    <trip id="t422" depart="2110" from="G1R" to="end" />
    <trip id="t423" depart="2115" from="end" to="C1" />
    <trip id="t424" depart="2120" from="F2R" to="E2R" />
    <trip id="t425" depart="2125" from="A2" to="E2" />
    <trip id="t426" depart="2130" from="B4" to="E2" />
    <trip id="t427" depart="2135" from="F1R" to="B4" />
    <trip id="t428" depart="2140" from="G2R" to="E1R" />
    <trip id="t429" depart="2145" from="B1R" to="C1R" />
    <trip id="t430" depart="2150" from="A3" to="F2R" />
    <trip id="t431" depart="2155" from="B4R" to="F1R" />
    <trip id="t432" depart="2160" from="G1" to="E2R" />
    <trip id="t433" depart="2165" from="C3R" to="B0R" />
    <trip id="t434" depart="2170" from="E2R" to="A1" />
    <trip id="t435" depart="2175" from="D1R" to="A1" />
    <trip id="t436" depart="2180" from="A1" to="B3" />
    <trip id="t437" depart="2185" from="B1R" to="B1" />
    <trip id="t438" depart="2190" from="F1" to="C2R" />
    <trip id="t439" depart="2195" from="G2" to="F1R" />
    <trip id="t440" depart="2200" from="F1" to="F2" />
    <trip id="t441" depart="2205" from="E2R" to="G2" />
    <trip id="t442" depart="2210" from="end" to="G2" />
    <trip id="t443" depart="2215" from="C1R" to="B1" />
    <trip id="t444" depart="2220" from="A1" to="B2" />
    <trip id="t445" depart="2225" from="F2" to="C3R" />
    <trip id="t446" depart="2230" from="G2" to="D1R" />
    <trip id="t447" depart="2235" from="C3" to="B1" />
    <trip id="t448" depart="2240" from="G2R" to="A1R" />
    <trip id="t449" depart="2245" from="end" to="D1" />
    <trip id="t450" depart="2250" from="D2R" to="E1" />
    <trip id="t451" depart="2255" from="end" to="A3R" />
    <trip id="t452" depart="2260" from="B3" to="A1" />
    <trip id="t453" depart="2265" from="A1R" to="B4" />
    <trip id="t454" depart="2270" from="A2" to="E1" />
    <trip id="t455" depart="2275" from="F2" to="B1" />
    <trip id="t456" depart="2280" from="E2R" to="start" />
    <trip id="t457" depart="2285" from="C1" to="D1" />
    <trip id="t458" depart="2290" from="B1R" to="B0R" />
    <trip id="t459" depart="2295" from="E2R" to="B3R" />
    <trip id="t460" depart="2300" from="start" to="G1" />
    <trip id="t461" depart="2305" from="E2R" to="C3R" />
    <trip id="t462" depart="2310" from="F1" to="D1" />
    <trip id="t463" depart="2315" from="A1R" to="A3" />
    <trip id="t464" depart="2320" from="C2R" to="A2" />
    <trip id="t465" depart="2325" from="B0R" to="D2" />
    <trip id="t466" depart="2330" from="C2" to="B0" />
    <trip id="t467" depart="2335" from="B3R" to="B2R" />
    <trip id="t468" depart="2340" from="A3R" to="A1R" />
    <trip id="t469" depart="2345" from="B2" to="C1R" />
    <trip id="t470" depart="2350" from="G1" to="C3" />
    <trip id="t471" depart="2355" from="F1R" to="C1" />
    <trip id="t472" depart="2360" from="A3" to="A2" />
    <trip id="t473" depart="2365" from="A3" to="E1R" />
    <trip id="t474" depart="2370" from="D2" to="B0" />
    <trip id="t475" depart="2375" from="B3R" to="F2" />
    <trip id="t476" depart="2380" from="B2" to="A3R" />
    <trip id="t477" depart="2385" from="C2" to="F2" />
    <trip id="t478" depart="2390" from="start" to="D2R" />
    <trip id="t479" depart="2395" from="A3R" to="B3" />
    <trip id="t480" depart="2400" from="B1" to="C3" />
    <trip id="t481" depart="2405" from="C1" to="B1R" />
    <trip id="t482" depart="2410" from="B0" to="C1" />
    <trip id="t483" depart="2415" from="E2R" to="B3" />
    <trip id="t484" depart="2420" from="A2" to="B2" />
    <trip id="t485" depart="2425" from="A2R" to="F1R" />
    <trip id="t486" depart="2430" from="A2R" to="B2R" />
    <trip id="t487" depart="2435" from="A1R" to="end" />
    <trip id="t488" depart="2440" from="E2R" to="A3" />
    <trip id="t489" depart="2445" from="end" to="F2" />
    <trip id="t490" depart="2450" from="B3R" to="G1R" />
    <trip id="t491" depart="2455" from="B4R" to="A1R" />
    <trip id="t492" depart="2460" from="F1" to="C2R" />
    <trip id="t493" depart="2465" from="B1R" to="E1" />
    <trip id="t494" depart="2470" from="F1R" to="A1R" />
    <trip id="t495" depart="2475" from="G1R" to="B2" />
    <trip id="t496" depart="2480" from="F2R" to="C1R" />
    <trip id="t497" depart="2485" from="B4" to="D1" />
    <trip id="t498" depart="2490" from="end" to="B0" />
    <trip id="t499" depart="2495" from="start" to="B3R" />
    <trip id="t500" depart="2500" from="D1" to="D1" />
    <trip id="t501" depart="2505" from="D1R" to="F2R" />
    <trip id="t502" depart="2510" from="E1" to="C1R" />
    <trip id="t503" depart="2515" from="G1" to="B1R" />
    <trip id="t504" depart="2520" from="F2R" to="G1R" />
    <trip id="t505" depart="2525" from="F1" to="E2" />
    <trip id="t506" depart="2530" from="A1" to="A3" />
    <trip id="t507" depart="2535" from="A2R" to="A2R" />
    <trip id="t508" depart="2540" from="F1" to="F2R" />
    <trip id="t509" depart="2545" from="A1" to="F2" />
    <trip id="t510" depart="2550" from="C1R" to="D2" />
    <trip id="t511" depart="2555" from="B2" to="A1" />
    <trip id="t512" depart="2560" from="C2R" to="B2" />
    <trip id="t513" depart="2565" from="F1R" to="A3R" />
    <trip id="t514" depart="2570" from="B4R" to="B4R" />
    <trip id="t515" depart="2575" from="A2R" to="A2" />
    <trip id="t516" depart="2580" from="B2" to="E1" />
    <trip id="t517" depart="2585" from="C3R" to="C3R" />
    <trip id="t518" depart="2590" from="F2" to="E2R" />
    <trip id="t519" depart="2595" from="A1R" to="A2R" />
    <trip id="t520" depart="2600" from="B3R" to="C2R" />
    <trip id="t521" depart="2605" from="B2R" to="E2R" />
    <trip id="t522" depart="2610" from="B3" to="E2" />
    <trip id="t523" depart="2615" from="D2" to="B1R" />
    <trip id="t524" depart="2620" from="F2" to="A1" />
    <trip id="t525" depart="2625" from="B0R" to="C3" />
    <trip id="t526" depart="2630" from="G2" to="E2" />
    <trip id="t527" depart="2635" from="C3R" to="G1R" />
    <trip id="t528" depart="2640" from="B0" to="B4" />
    <trip id="t529" depart="2645" from="E2R" to="G1" />
    <trip id="t530" depart="2650" from="G1" to="C2R" />
    <trip id="t531" depart="2655" from="D2" to="D1R" />
    <trip id="t532" depart="2660" from="B2R" to="F2" />
    <trip id="t533" depart="2665" from="D1R" to="C3" />
    <trip id="t534" depart="2670" from="G1R" to="B1R" />
    <trip id="t535" depart="2675" from="D2" to="E2R" />
    <trip id="t536" depart="2680" from="E2R" to="B3" />