<?xml version="1.0" encoding="iso-8859-1"?>

<configuration xmlns:xsi="http://www.w3.org/2001/XMLSchema-instance" xsi:noNamespaceSchemaLocation="http://sumo.sf.net/xsd/sumoConfiguration.xsd">

    <input>
        <net-file value="smallGrid.net.xml"/>
        <route-files value="smallGrid.rou.xml"/>
		<gui-settings-file value="my_configuration.cfg"/>
    </input>

    <time>
        <begin value="0"/>
        <end value="7200"/>
   		<step-length value="0.1"/>
    </time>
    <time-to-teleport value="7200"/>
</configuration>
