<?xml version="1.0" encoding="iso-8859-1"?>

<!-- generated on Tue Mar 15 12:07:01 2016 by SUMO netgen Version 0.13.1
<?xml version="1.0" encoding="iso-8859-1"?>

<configuration xmlns:xsi="http://www.w3.org/2001/XMLSchema-instance" xsi:noNamespaceSchemaLocation="http://sumo.sf.net/xsd/netgenConfiguration.xsd">

    <grid_network>
        <grid value="true"/>
        <grid.number value="3"/>
        <grid.length value="500"/>
    </grid_network>

    <output>
        <output-file value="smallGrid"/>
    </output>

</configuration>
-->

<net version="0.13" xmlns:xsi="http://www.w3.org/2001/XMLSchema-instance" xsi:noNamespaceSchemaLocation="http://sumo.sf.net/xsd/net_file.xsd">

    <location netOffset="0.00,0.00" convBoundary="0.00,0.00,1000.00,1000.00" origBoundary="0.00,0.00,1000.00,1000.00" projParameter="!"/>

    <edge id=":0/0_0" function="internal">
        <lane id=":0/0_0_0" index="0" speed="13.90" length="7.90" shape="-1.65,3.25 -1.34,1.11 -0.43,-0.42 1.11,-1.34 3.25,-1.65"/>
    </edge>
    <edge id=":0/0_1" function="internal">
        <lane id=":0/0_1_0" index="0" speed="13.90" length="2.41" shape="-1.65,3.25 -0.83,2.01 -0.00,1.60"/>
    </edge>
    <edge id=":0/0_4" function="internal">
        <lane id=":0/0_4_0" index="0" speed="13.90" length="2.41" shape="-0.00,1.60 0.82,2.01 1.65,3.25"/>
    </edge>
    <edge id=":0/0_2" function="internal">
        <lane id=":0/0_2_0" index="0" speed="13.90" length="2.58" shape="3.25,1.65 2.55,1.75 2.05,2.05 1.75,2.55 1.65,3.25"/>
    </edge>
    <edge id=":0/0_3" function="internal">
        <lane id=":0/0_3_0" index="0" speed="13.90" length="2.41" shape="3.25,1.65 2.01,0.82 1.60,-0.00"/>
    </edge>
    <edge id=":0/0_5" function="internal">
        <lane id=":0/0_5_0" index="0" speed="13.90" length="2.41" shape="1.60,-0.00 2.01,-0.83 3.25,-1.65"/>
    </edge>
    <edge id=":0/1_0" function="internal">
        <lane id=":0/1_0_0" index="0" speed="13.90" length="9.50" shape="-1.65,504.75 -1.65,495.25"/>
    </edge>
    <edge id=":0/1_1" function="internal">
        <lane id=":0/1_1_0" index="0" speed="13.90" length="7.14" shape="-1.65,504.75 -1.25,501.95 -0.05,499.95 1.65,498.93"/>
    </edge>
    <edge id=":0/1_9" function="internal">
        <lane id=":0/1_9_0" index="0" speed="13.90" length="3.18" shape="1.65,498.93 1.95,498.75 4.75,498.35"/>
    </edge>
    <edge id=":0/1_2" function="internal">
        <lane id=":0/1_2_0" index="0" speed="13.90" length="2.41" shape="-1.65,504.75 -0.83,503.51 -0.00,503.10"/>
    </edge>
    <edge id=":0/1_10" function="internal">
        <lane id=":0/1_10_0" index="0" speed="13.90" length="2.41" shape="-0.00,503.10 0.82,503.51 1.65,504.75"/>
    </edge>
    <edge id=":0/1_3" function="internal">
        <lane id=":0/1_3_0" index="0" speed="13.90" length="5.00" shape="4.75,501.65 3.39,501.84 2.43,502.42 1.84,503.39 1.65,504.75"/>
    </edge>
    <edge id=":0/1_4" function="internal">
        <lane id=":0/1_4_0" index="0" speed="13.90" length="10.32" shape="4.75,501.65 1.95,501.25 -0.05,500.05 -1.25,498.05 -1.65,495.25"/>
    </edge>
    <edge id=":0/1_5" function="internal">
        <lane id=":0/1_5_0" index="0" speed="13.90" length="4.82" shape="4.75,501.65 3.51,500.83 3.10,500.00 3.51,499.18 4.75,498.35"/>
    </edge>
    <edge id=":0/1_6" function="internal">
        <lane id=":0/1_6_0" index="0" speed="13.90" length="5.00" shape="1.65,495.25 1.84,496.61 2.43,497.58 3.39,498.16 4.75,498.35"/>
    </edge>
    <edge id=":0/1_7" function="internal">
        <lane id=":0/1_7_0" index="0" speed="13.90" length="9.50" shape="1.65,495.25 1.65,504.75"/>
    </edge>
    <edge id=":0/1_8" function="internal">
        <lane id=":0/1_8_0" index="0" speed="13.90" length="2.41" shape="1.65,495.25 0.83,496.49 0.00,496.90"/>
    </edge>
    <edge id=":0/1_11" function="internal">
        <lane id=":0/1_11_0" index="0" speed="13.90" length="2.41" shape="0.00,496.90 -0.82,496.49 -1.65,495.25"/>
    </edge>
    <edge id=":0/2_0" function="internal">
        <lane id=":0/2_0_0" index="0" speed="13.90" length="7.90" shape="3.25,1001.65 1.11,1001.34 -0.43,1000.42 -1.34,998.89 -1.65,996.75"/>
    </edge>
    <edge id=":0/2_1" function="internal">
        <lane id=":0/2_1_0" index="0" speed="13.90" length="2.41" shape="3.25,1001.65 2.01,1000.83 1.60,1000.00"/>
    </edge>
    <edge id=":0/2_4" function="internal">
        <lane id=":0/2_4_0" index="0" speed="13.90" length="2.41" shape="1.60,1000.00 2.01,999.18 3.25,998.35"/>
    </edge>
    <edge id=":0/2_2" function="internal">
        <lane id=":0/2_2_0" index="0" speed="13.90" length="2.58" shape="1.65,996.75 1.75,997.45 2.05,997.95 2.55,998.25 3.25,998.35"/>
    </edge>
    <edge id=":0/2_3" function="internal">
        <lane id=":0/2_3_0" index="0" speed="13.90" length="2.41" shape="1.65,996.75 0.83,997.99 0.00,998.40"/>
    </edge>
    <edge id=":0/2_5" function="internal">
        <lane id=":0/2_5_0" index="0" speed="13.90" length="2.41" shape="0.00,998.40 -0.82,997.99 -1.65,996.75"/>
    </edge>
    <edge id=":1/0_0" function="internal">
        <lane id=":1/0_0_0" index="0" speed="13.90" length="5.00" shape="498.35,4.75 498.16,3.39 497.57,2.43 496.61,1.84 495.25,1.65"/>
    </edge>
    <edge id=":1/0_1" function="internal">
        <lane id=":1/0_1_0" index="0" speed="13.90" length="10.32" shape="498.35,4.75 498.75,1.95 499.95,-0.05 501.95,-1.25 504.75,-1.65"/>
    </edge>
    <edge id=":1/0_2" function="internal">
        <lane id=":1/0_2_0" index="0" speed="13.90" length="4.82" shape="498.35,4.75 499.18,3.51 500.00,3.10 500.82,3.51 501.65,4.75"/>
    </edge>
    <edge id=":1/0_3" function="internal">
        <lane id=":1/0_3_0" index="0" speed="13.90" length="5.00" shape="504.75,1.65 503.39,1.84 502.43,2.42 501.84,3.39 501.65,4.75"/>
    </edge>
    <edge id=":1/0_4" function="internal">
        <lane id=":1/0_4_0" index="0" speed="13.90" length="9.50" shape="504.75,1.65 495.25,1.65"/>
    </edge>
    <edge id=":1/0_5" function="internal">
        <lane id=":1/0_5_0" index="0" speed="13.90" length="2.41" shape="504.75,1.65 503.51,0.83 503.10,0.00"/>
    </edge>
    <edge id=":1/0_9" function="internal">
        <lane id=":1/0_9_0" index="0" speed="13.90" length="2.41" shape="503.10,0.00 503.51,-0.82 504.75,-1.65"/>
    </edge>
    <edge id=":1/0_6" function="internal">
        <lane id=":1/0_6_0" index="0" speed="13.90" length="9.50" shape="495.25,-1.65 504.75,-1.65"/>
    </edge>
    <edge id=":1/0_7" function="internal">
        <lane id=":1/0_7_0" index="0" speed="13.90" length="7.14" shape="495.25,-1.65 498.05,-1.25 500.05,-0.05 501.07,1.65"/>
    </edge>
    <edge id=":1/0_10" function="internal">
        <lane id=":1/0_10_0" index="0" speed="13.90" length="3.18" shape="501.07,1.65 501.25,1.95 501.65,4.75"/>
    </edge>
    <edge id=":1/0_8" function="internal">
        <lane id=":1/0_8_0" index="0" speed="13.90" length="2.41" shape="495.25,-1.65 496.49,-0.83 496.90,-0.00"/>
    </edge>
    <edge id=":1/0_11" function="internal">
        <lane id=":1/0_11_0" index="0" speed="13.90" length="2.41" shape="496.90,-0.00 496.49,0.82 495.25,1.65"/>
    </edge>
    <edge id=":1/1_0" function="internal">
        <lane id=":1/1_0_0" index="0" speed="13.90" length="5.00" shape="498.35,504.75 498.16,503.39 497.57,502.42 496.61,501.84 495.25,501.65"/>
    </edge>
    <edge id=":1/1_1" function="internal">
        <lane id=":1/1_1_0" index="0" speed="13.90" length="9.50" shape="498.35,504.75 498.35,495.25"/>
    </edge>
    <edge id=":1/1_2" function="internal">
        <lane id=":1/1_2_0" index="0" speed="13.90" length="7.14" shape="498.35,504.75 498.75,501.95 499.95,499.95 501.65,498.93"/>
    </edge>
    <edge id=":1/1_16" function="internal">
        <lane id=":1/1_16_0" index="0" speed="13.90" length="3.18" shape="501.65,498.93 501.95,498.75 504.75,498.35"/>
    </edge>
    <edge id=":1/1_3" function="internal">
        <lane id=":1/1_3_0" index="0" speed="13.90" length="2.41" shape="498.35,504.75 499.18,503.51 500.00,503.10"/>
    </edge>
    <edge id=":1/1_17" function="internal">
        <lane id=":1/1_17_0" index="0" speed="13.90" length="2.41" shape="500.00,503.10 500.82,503.51 501.65,504.75"/>
    </edge>
    <edge id=":1/1_4" function="internal">
        <lane id=":1/1_4_0" index="0" speed="13.90" length="5.00" shape="504.75,501.65 503.39,501.84 502.43,502.42 501.84,503.39 501.65,504.75"/>
    </edge>
    <edge id=":1/1_5" function="internal">
        <lane id=":1/1_5_0" index="0" speed="13.90" length="9.50" shape="504.75,501.65 495.25,501.65"/>
    </edge>
    <edge id=":1/1_6" function="internal">
        <lane id=":1/1_6_0" index="0" speed="13.90" length="10.32" shape="504.75,501.65 501.95,501.25 499.95,500.05 498.75,498.05 498.35,495.25"/>
    </edge>
    <edge id=":1/1_7" function="internal">
        <lane id=":1/1_7_0" index="0" speed="13.90" length="4.82" shape="504.75,501.65 503.51,500.83 503.10,500.00 503.51,499.18 504.75,498.35"/>
    </edge>
    <edge id=":1/1_8" function="internal">
        <lane id=":1/1_8_0" index="0" speed="13.90" length="5.00" shape="501.65,495.25 501.84,496.61 502.43,497.58 503.39,498.16 504.75,498.35"/>
    </edge>
    <edge id=":1/1_9" function="internal">
        <lane id=":1/1_9_0" index="0" speed="13.90" length="9.50" shape="501.65,495.25 501.65,504.75"/>
    </edge>
    <edge id=":1/1_10" function="internal">
        <lane id=":1/1_10_0" index="0" speed="13.90" length="7.14" shape="501.65,495.25 501.25,498.05 500.05,500.05 498.35,501.07"/>
    </edge>
    <edge id=":1/1_18" function="internal">
        <lane id=":1/1_18_0" index="0" speed="13.90" length="3.18" shape="498.35,501.07 498.05,501.25 495.25,501.65"/>
    </edge>
    <edge id=":1/1_11" function="internal">
        <lane id=":1/1_11_0" index="0" speed="13.90" length="2.41" shape="501.65,495.25 500.82,496.49 500.00,496.90"/>
    </edge>
    <edge id=":1/1_19" function="internal">
        <lane id=":1/1_19_0" index="0" speed="13.90" length="2.41" shape="500.00,496.90 499.18,496.49 498.35,495.25"/>
    </edge>
    <edge id=":1/1_12" function="internal">
        <lane id=":1/1_12_0" index="0" speed="13.90" length="5.00" shape="495.25,498.35 496.61,498.16 497.57,497.58 498.16,496.61 498.35,495.25"/>
    </edge>
    <edge id=":1/1_13" function="internal">
        <lane id=":1/1_13_0" index="0" speed="13.90" length="9.50" shape="495.25,498.35 504.75,498.35"/>
    </edge>
    <edge id=":1/1_14" function="internal">
        <lane id=":1/1_14_0" index="0" speed="13.90" length="10.32" shape="495.25,498.35 498.05,498.75 500.05,499.95 501.25,501.95 501.65,504.75"/>
    </edge>
    <edge id=":1/1_15" function="internal">
        <lane id=":1/1_15_0" index="0" speed="13.90" length="4.82" shape="495.25,498.35 496.49,499.17 496.90,500.00 496.49,500.82 495.25,501.65"/>
    </edge>
    <edge id=":1/2_0" function="internal">
        <lane id=":1/2_0_0" index="0" speed="13.90" length="9.50" shape="504.75,1001.65 495.25,1001.65"/>
    </edge>
    <edge id=":1/2_1" function="internal">
        <lane id=":1/2_1_0" index="0" speed="13.90" length="7.14" shape="504.75,1001.65 501.95,1001.25 499.95,1000.05 498.93,998.35"/>
    </edge>
    <edge id=":1/2_9" function="internal">
        <lane id=":1/2_9_0" index="0" speed="13.90" length="3.18" shape="498.93,998.35 498.75,998.05 498.35,995.25"/>
    </edge>
    <edge id=":1/2_2" function="internal">
        <lane id=":1/2_2_0" index="0" speed="13.90" length="2.41" shape="504.75,1001.65 503.51,1000.83 503.10,1000.00"/>
    </edge>
    <edge id=":1/2_10" function="internal">
        <lane id=":1/2_10_0" index="0" speed="13.90" length="2.41" shape="503.10,1000.00 503.51,999.18 504.75,998.35"/>
    </edge>
    <edge id=":1/2_3" function="internal">
        <lane id=":1/2_3_0" index="0" speed="13.90" length="5.00" shape="501.65,995.25 501.84,996.61 502.43,997.57 503.39,998.16 504.75,998.35"/>
    </edge>
    <edge id=":1/2_4" function="internal">
        <lane id=":1/2_4_0" index="0" speed="13.90" length="10.32" shape="501.65,995.25 501.25,998.05 500.05,1000.05 498.05,1001.25 495.25,1001.65"/>
    </edge>
    <edge id=":1/2_5" function="internal">
        <lane id=":1/2_5_0" index="0" speed="13.90" length="4.82" shape="501.65,995.25 500.82,996.49 500.00,996.90 499.18,996.49 498.35,995.25"/>
    </edge>
    <edge id=":1/2_6" function="internal">
        <lane id=":1/2_6_0" index="0" speed="13.90" length="5.00" shape="495.25,998.35 496.61,998.16 497.57,997.58 498.16,996.61 498.35,995.25"/>
    </edge>
    <edge id=":1/2_7" function="internal">
        <lane id=":1/2_7_0" index="0" speed="13.90" length="9.50" shape="495.25,998.35 504.75,998.35"/>
    </edge>
    <edge id=":1/2_8" function="internal">
        <lane id=":1/2_8_0" index="0" speed="13.90" length="2.41" shape="495.25,998.35 496.49,999.17 496.90,1000.00"/>
    </edge>
    <edge id=":1/2_11" function="internal">
        <lane id=":1/2_11_0" index="0" speed="13.90" length="2.41" shape="496.90,1000.00 496.49,1000.82 495.25,1001.65"/>
    </edge>
    <edge id=":2/0_0" function="internal">
        <lane id=":2/0_0_0" index="0" speed="13.90" length="2.58" shape="998.35,3.25 998.25,2.55 997.95,2.05 997.45,1.75 996.75,1.65"/>
    </edge>
    <edge id=":2/0_1" function="internal">
        <lane id=":2/0_1_0" index="0" speed="13.90" length="2.41" shape="998.35,3.25 999.17,2.01 1000.00,1.60"/>
    </edge>
    <edge id=":2/0_4" function="internal">
        <lane id=":2/0_4_0" index="0" speed="13.90" length="2.41" shape="1000.00,1.60 1000.83,2.01 1001.65,3.25"/>
    </edge>
    <edge id=":2/0_2" function="internal">
        <lane id=":2/0_2_0" index="0" speed="13.90" length="7.90" shape="996.75,-1.65 998.89,-1.34 1000.43,-0.42 1001.34,1.11 1001.65,3.25"/>
    </edge>
    <edge id=":2/0_3" function="internal">
        <lane id=":2/0_3_0" index="0" speed="13.90" length="2.41" shape="996.75,-1.65 997.99,-0.83 998.40,-0.00"/>
    </edge>
    <edge id=":2/0_5" function="internal">
        <lane id=":2/0_5_0" index="0" speed="13.90" length="2.41" shape="998.40,-0.00 997.99,0.82 996.75,1.65"/>
    </edge>
    <edge id=":2/1_0" function="internal">
        <lane id=":2/1_0_0" index="0" speed="13.90" length="5.00" shape="998.35,504.75 998.16,503.39 997.57,502.42 996.61,501.84 995.25,501.65"/>
    </edge>
    <edge id=":2/1_1" function="internal">
        <lane id=":2/1_1_0" index="0" speed="13.90" length="9.50" shape="998.35,504.75 998.35,495.25"/>
    </edge>
    <edge id=":2/1_2" function="internal">
        <lane id=":2/1_2_0" index="0" speed="13.90" length="2.41" shape="998.35,504.75 999.17,503.51 1000.00,503.10"/>
    </edge>
    <edge id=":2/1_9" function="internal">
        <lane id=":2/1_9_0" index="0" speed="13.90" length="2.41" shape="1000.00,503.10 1000.83,503.51 1001.65,504.75"/>
    </edge>
    <edge id=":2/1_3" function="internal">
        <lane id=":2/1_3_0" index="0" speed="13.90" length="9.50" shape="1001.65,495.25 1001.65,504.75"/>
    </edge>
    <edge id=":2/1_4" function="internal">
        <lane id=":2/1_4_0" index="0" speed="13.90" length="7.14" shape="1001.65,495.25 1001.25,498.05 1000.05,500.05 998.35,501.07"/>
    </edge>
    <edge id=":2/1_10" function="internal">
        <lane id=":2/1_10_0" index="0" speed="13.90" length="3.18" shape="998.35,501.07 998.05,501.25 995.25,501.65"/>
    </edge>
    <edge id=":2/1_5" function="internal">
        <lane id=":2/1_5_0" index="0" speed="13.90" length="2.41" shape="1001.65,495.25 1000.83,496.49 1000.00,496.90"/>
    </edge>
    <edge id=":2/1_11" function="internal">
        <lane id=":2/1_11_0" index="0" speed="13.90" length="2.41" shape="1000.00,496.90 999.17,496.49 998.35,495.25"/>
    </edge>
    <edge id=":2/1_6" function="internal">
        <lane id=":2/1_6_0" index="0" speed="13.90" length="5.00" shape="995.25,498.35 996.61,498.16 997.57,497.58 998.16,496.61 998.35,495.25"/>
    </edge>
    <edge id=":2/1_7" function="internal">
        <lane id=":2/1_7_0" index="0" speed="13.90" length="10.32" shape="995.25,498.35 998.05,498.75 1000.05,499.95 1001.25,501.95 1001.65,504.75"/>
    </edge>
    <edge id=":2/1_8" function="internal">
        <lane id=":2/1_8_0" index="0" speed="13.90" length="4.82" shape="995.25,498.35 996.49,499.17 996.90,500.00 996.49,500.82 995.25,501.65"/>
    </edge>
    <edge id=":2/2_0" function="internal">
        <lane id=":2/2_0_0" index="0" speed="13.90" length="7.90" shape="1001.65,996.75 1001.34,998.89 1000.43,1000.43 998.89,1001.34 996.75,1001.65"/>
    </edge>
    <edge id=":2/2_1" function="internal">
        <lane id=":2/2_1_0" index="0" speed="13.90" length="2.41" shape="1001.65,996.75 1000.83,997.99 1000.00,998.40"/>
    </edge>
    <edge id=":2/2_4" function="internal">
        <lane id=":2/2_4_0" index="0" speed="13.90" length="2.41" shape="1000.00,998.40 999.17,997.99 998.35,996.75"/>
    </edge>
    <edge id=":2/2_2" function="internal">
        <lane id=":2/2_2_0" index="0" speed="13.90" length="2.58" shape="996.75,998.35 997.45,998.25 997.95,997.95 998.25,997.45 998.35,996.75"/>
    </edge>
    <edge id=":2/2_3" function="internal">
        <lane id=":2/2_3_0" index="0" speed="13.90" length="2.41" shape="996.75,998.35 997.99,999.18 998.40,1000.00"/>
    </edge>
    <edge id=":2/2_5" function="internal">
        <lane id=":2/2_5_0" index="0" speed="13.90" length="2.41" shape="998.40,1000.00 997.99,1000.83 996.75,1001.65"/>
    </edge>

    <edge id="0/0to0/1" from="0/0" to="0/1" priority="-1">
        <lane id="0/0to0/1_0" index="0" speed="13.90" length="492.00" shape="1.65,3.25 1.65,495.25"/>
    </edge>
    <edge id="0/0to1/0" from="0/0" to="1/0" priority="-1">
        <lane id="0/0to1/0_0" index="0" speed="13.90" length="492.00" shape="3.25,-1.65 495.25,-1.65"/>
    </edge>
    <edge id="0/1to0/0" from="0/1" to="0/0" priority="-1">
        <lane id="0/1to0/0_0" index="0" speed="13.90" length="492.00" shape="-1.65,495.25 -1.65,3.25"/>
    </edge>
    <edge id="0/1to0/2" from="0/1" to="0/2" priority="-1">
        <lane id="0/1to0/2_0" index="0" speed="13.90" length="492.00" shape="1.65,504.75 1.65,996.75"/>
    </edge>
    <edge id="0/1to1/1" from="0/1" to="1/1" priority="-1">
        <lane id="0/1to1/1_0" index="0" speed="13.90" length="490.50" shape="4.75,498.35 495.25,498.35"/>
    </edge>
    <edge id="0/2to0/1" from="0/2" to="0/1" priority="-1">
        <lane id="0/2to0/1_0" index="0" speed="13.90" length="492.00" shape="-1.65,996.75 -1.65,504.75"/>
    </edge>
    <edge id="0/2to1/2" from="0/2" to="1/2" priority="-1">
        <lane id="0/2to1/2_0" index="0" speed="13.90" length="492.00" shape="3.25,998.35 495.25,998.35"/>
    </edge>
    <edge id="1/0to0/0" from="1/0" to="0/0" priority="-1">
        <lane id="1/0to0/0_0" index="0" speed="13.90" length="492.00" shape="495.25,1.65 3.25,1.65"/>
    </edge>
    <edge id="1/0to1/1" from="1/0" to="1/1" priority="-1">
        <lane id="1/0to1/1_0" index="0" speed="13.90" length="490.50" shape="501.65,4.75 501.65,495.25"/>
    </edge>
    <edge id="1/0to2/0" from="1/0" to="2/0" priority="-1">
        <lane id="1/0to2/0_0" index="0" speed="13.90" length="492.00" shape="504.75,-1.65 996.75,-1.65"/>
    </edge>
    <edge id="1/1to0/1" from="1/1" to="0/1" priority="-1">
        <lane id="1/1to0/1_0" index="0" speed="13.90" length="490.50" shape="495.25,501.65 4.75,501.65"/>
    </edge>
    <edge id="1/1to1/0" from="1/1" to="1/0" priority="-1">
        <lane id="1/1to1/0_0" index="0" speed="13.90" length="490.50" shape="498.35,495.25 498.35,4.75"/>
    </edge>
    <edge id="1/1to1/2" from="1/1" to="1/2" priority="-1">
        <lane id="1/1to1/2_0" index="0" speed="13.90" length="490.50" shape="501.65,504.75 501.65,995.25"/>
    </edge>
    <edge id="1/1to2/1" from="1/1" to="2/1" priority="-1">
        <lane id="1/1to2/1_0" index="0" speed="13.90" length="490.50" shape="504.75,498.35 995.25,498.35"/>
    </edge>
    <edge id="1/2to0/2" from="1/2" to="0/2" priority="-1">
        <lane id="1/2to0/2_0" index="0" speed="13.90" length="492.00" shape="495.25,1001.65 3.25,1001.65"/>
    </edge>
    <edge id="1/2to1/1" from="1/2" to="1/1" priority="-1">
        <lane id="1/2to1/1_0" index="0" speed="13.90" length="490.50" shape="498.35,995.25 498.35,504.75"/>
    </edge>
    <edge id="1/2to2/2" from="1/2" to="2/2" priority="-1">
        <lane id="1/2to2/2_0" index="0" speed="13.90" length="492.00" shape="504.75,998.35 996.75,998.35"/>
    </edge>
    <edge id="2/0to1/0" from="2/0" to="1/0" priority="-1">
        <lane id="2/0to1/0_0" index="0" speed="13.90" length="492.00" shape="996.75,1.65 504.75,1.65"/>
    </edge>
    <edge id="2/0to2/1" from="2/0" to="2/1" priority="-1">
        <lane id="2/0to2/1_0" index="0" speed="13.90" length="492.00" shape="1001.65,3.25 1001.65,495.25"/>
    </edge>
    <edge id="2/1to1/1" from="2/1" to="1/1" priority="-1">
        <lane id="2/1to1/1_0" index="0" speed="13.90" length="490.50" shape="995.25,501.65 504.75,501.65"/>
    </edge>
    <edge id="2/1to2/0" from="2/1" to="2/0" priority="-1">
        <lane id="2/1to2/0_0" index="0" speed="13.90" length="492.00" shape="998.35,495.25 998.35,3.25"/>
    </edge>
    <edge id="2/1to2/2" from="2/1" to="2/2" priority="-1">
        <lane id="2/1to2/2_0" index="0" speed="13.90" length="492.00" shape="1001.65,504.75 1001.65,996.75"/>
    </edge>
    <edge id="2/2to1/2" from="2/2" to="1/2" priority="-1">
        <lane id="2/2to1/2_0" index="0" speed="13.90" length="492.00" shape="996.75,1001.65 504.75,1001.65"/>
    </edge>
    <edge id="2/2to2/1" from="2/2" to="2/1" priority="-1">
        <lane id="2/2to2/1_0" index="0" speed="13.90" length="492.00" shape="998.35,996.75 998.35,504.75"/>
    </edge>

    <junction id="0/0" type="priority" x="0.00" y="0.00" incLanes="0/1to0/0_0 1/0to0/0_0" intLanes=":0/0_0_0 :0/0_4_0 :0/0_2_0 :0/0_5_0" shape="-3.25,3.25 3.25,3.25 3.25,-3.25">
        <request index="0" response="0000" foes="1000" cont="0"/>
        <request index="1" response="0100" foes="0100" cont="1"/>
        <request index="2" response="0000" foes="0010" cont="0"/>
        <request index="3" response="0001" foes="0001" cont="1"/>
    </junction>
    <junction id="0/1" type="priority" x="0.00" y="500.00" incLanes="0/2to0/1_0 1/1to0/1_0 0/0to0/1_0" intLanes=":0/1_0_0 :0/1_9_0 :0/1_10_0 :0/1_3_0 :0/1_4_0 :0/1_5_0 :0/1_6_0 :0/1_7_0 :0/1_11_0" shape="-3.25,504.75 3.25,504.75 4.75,503.25 4.75,496.75 3.25,495.25 -3.25,495.25">
        <request index="0" response="000000000" foes="100010000" cont="0"/>
        <request index="1" response="011000000" foes="011110000" cont="1"/>
        <request index="2" response="010001000" foes="010001000" cont="1"/>
        <request index="3" response="010000000" foes="010000100" cont="0"/>
        <request index="4" response="010000011" foes="110000011" cont="0"/>
        <request index="5" response="001000010" foes="001000010" cont="0"/>
        <request index="6" response="000000000" foes="000100010" cont="0"/>
        <request index="7" response="000000000" foes="000011110" cont="0"/>
        <request index="8" response="000010001" foes="000010001" cont="1"/>
    </junction>
    <junction id="0/2" type="priority" x="0.00" y="1000.00" incLanes="1/2to0/2_0 0/1to0/2_0" intLanes=":0/2_0_0 :0/2_4_0 :0/2_2_0 :0/2_5_0" shape="3.25,1003.25 3.25,996.75 -3.25,996.75">
        <request index="0" response="0000" foes="1000" cont="0"/>
        <request index="1" response="0100" foes="0100" cont="1"/>
        <request index="2" response="0000" foes="0010" cont="0"/>
        <request index="3" response="0001" foes="0001" cont="1"/>
    </junction>
    <junction id="1/0" type="priority" x="500.00" y="0.00" incLanes="1/1to1/0_0 2/0to1/0_0 0/0to1/0_0" intLanes=":1/0_0_0 :1/0_1_0 :1/0_2_0 :1/0_3_0 :1/0_4_0 :1/0_9_0 :1/0_6_0 :1/0_10_0 :1/0_11_0" shape="496.75,4.75 503.25,4.75 504.75,3.25 504.75,-3.25 495.25,-3.25 495.25,3.25">
        <request index="0" response="000010000" foes="100010000" cont="0"/>
        <request index="1" response="011010000" foes="011110000" cont="0"/>
        <request index="2" response="010001000" foes="010001000" cont="0"/>
        <request index="3" response="000000000" foes="010000100" cont="0"/>
        <request index="4" response="000000000" foes="110000011" cont="0"/>
        <request index="5" response="001000010" foes="001000010" cont="1"/>
        <request index="6" response="000000000" foes="000100010" cont="0"/>
        <request index="7" response="000011000" foes="000011110" cont="1"/>
        <request index="8" response="000010001" foes="000010001" cont="1"/>
    </junction>
    <junction id="1/1" type="priority" x="500.00" y="500.00" incLanes="1/2to1/1_0 2/1to1/1_0 1/0to1/1_0 0/1to1/1_0" intLanes=":1/1_0_0 :1/1_1_0 :1/1_16_0 :1/1_17_0 :1/1_4_0 :1/1_5_0 :1/1_6_0 :1/1_7_0 :1/1_8_0 :1/1_9_0 :1/1_18_0 :1/1_19_0 :1/1_12_0 :1/1_13_0 :1/1_14_0 :1/1_15_0" shape="496.75,504.75 503.25,504.75 504.75,503.25 504.75,496.75 503.25,495.25 496.75,495.25 495.25,496.75 495.25,503.25">
        <request index="0" response="0000000000000000" foes="1000010000100000" cont="0"/>
        <request index="1" response="0000000000000000" foes="0111110001100000" cont="0"/>
        <request index="2" response="0000001100000000" foes="0110001111100000" cont="1"/>
        <request index="3" response="0100001000010000" foes="0100001000010000" cont="1"/>
        <request index="4" response="0000001000000000" foes="0100001000001000" cont="0"/>
        <request index="5" response="0000011000000111" foes="1100011000000111" cont="0"/>
        <request index="6" response="0011011000000110" foes="0011111000000110" cont="0"/>
        <request index="7" response="0010000100000100" foes="0010000100000100" cont="0"/>
        <request index="8" response="0000000000000000" foes="0010000010000100" cont="0"/>
        <request index="9" response="0000000000000000" foes="0110000001111100" cont="0"/>
        <request index="10" response="0000000000000011" foes="1110000001100011" cont="1"/>
        <request index="11" response="0001000001000010" foes="0001000001000010" cont="1"/>
        <request index="12" response="0000000000000010" foes="0000100001000010" cont="0"/>
        <request index="13" response="0000011100000110" foes="0000011111000110" cont="0"/>
        <request index="14" response="0000011000110110" foes="0000011000111110" cont="0"/>
        <request index="15" response="0000010000100001" foes="0000010000100001" cont="0"/>
    </junction>
    <junction id="1/2" type="priority" x="500.00" y="1000.00" incLanes="2/2to1/2_0 1/1to1/2_0 0/2to1/2_0" intLanes=":1/2_0_0 :1/2_9_0 :1/2_10_0 :1/2_3_0 :1/2_4_0 :1/2_5_0 :1/2_6_0 :1/2_7_0 :1/2_11_0" shape="504.75,1003.25 504.75,996.75 503.25,995.25 496.75,995.25 495.25,996.75 495.25,1003.25">
        <request index="0" response="000000000" foes="100010000" cont="0"/>
        <request index="1" response="011000000" foes="011110000" cont="1"/>
        <request index="2" response="010001000" foes="010001000" cont="1"/>
        <request index="3" response="010000000" foes="010000100" cont="0"/>
        <request index="4" response="010000011" foes="110000011" cont="0"/>
        <request index="5" response="001000010" foes="001000010" cont="0"/>
        <request index="6" response="000000000" foes="000100010" cont="0"/>
        <request index="7" response="000000000" foes="000011110" cont="0"/>
        <request index="8" response="000010001" foes="000010001" cont="1"/>
    </junction>
    <junction id="2/0" type="priority" x="1000.00" y="0.00" incLanes="2/1to2/0_0 1/0to2/0_0" intLanes=":2/0_0_0 :2/0_4_0 :2/0_2_0 :2/0_5_0" shape="996.75,3.25 1003.25,3.25 996.75,-3.25 996.75,3.25">
        <request index="0" response="0000" foes="1000" cont="0"/>
        <request index="1" response="0100" foes="0100" cont="1"/>
        <request index="2" response="0000" foes="0010" cont="0"/>
        <request index="3" response="0001" foes="0001" cont="1"/>
    </junction>
    <junction id="2/1" type="priority" x="1000.00" y="500.00" incLanes="2/2to2/1_0 2/0to2/1_0 1/1to2/1_0" intLanes=":2/1_0_0 :2/1_1_0 :2/1_9_0 :2/1_3_0 :2/1_10_0 :2/1_11_0 :2/1_6_0 :2/1_7_0 :2/1_8_0" shape="996.75,504.75 1003.25,504.75 1003.25,495.25 996.75,495.25 995.25,496.75 995.25,503.25">
        <request index="0" response="000000000" foes="100010000" cont="0"/>
        <request index="1" response="000000000" foes="011110000" cont="0"/>
        <request index="2" response="010001000" foes="010001000" cont="1"/>
        <request index="3" response="000000000" foes="010000100" cont="0"/>
        <request index="4" response="000000011" foes="110000011" cont="1"/>
        <request index="5" response="001000010" foes="001000010" cont="1"/>
        <request index="6" response="000000010" foes="000100010" cont="0"/>
        <request index="7" response="000011010" foes="000011110" cont="0"/>
        <request index="8" response="000010001" foes="000010001" cont="0"/>
    </junction>
    <junction id="2/2" type="priority" x="1000.00" y="1000.00" incLanes="2/1to2/2_0 1/2to2/2_0" intLanes=":2/2_0_0 :2/2_4_0 :2/2_2_0 :2/2_5_0" shape="1003.25,996.75 996.75,996.75 996.75,1003.25">
        <request index="0" response="0000" foes="1000" cont="0"/>
        <request index="1" response="0100" foes="0100" cont="1"/>
        <request index="2" response="0000" foes="0010" cont="0"/>
        <request index="3" response="0001" foes="0001" cont="1"/>
    </junction>

    <junction id=":0/0_4_0" type="internal" x="-0.00" y="1.60" incLanes=":0/0_1_0 1/0to0/0_0" intLanes=":0/0_2_0"/>
    <junction id=":0/0_5_0" type="internal" x="1.60" y="-0.00" incLanes=":0/0_3_0 0/1to0/0_0" intLanes=":0/0_0_0"/>
    <junction id=":0/1_9_0" type="internal" x="1.65" y="498.93" incLanes=":0/1_1_0 0/0to0/1_0" intLanes=":0/1_6_0 :0/1_7_0"/>
    <junction id=":0/1_10_0" type="internal" x="-0.00" y="503.10" incLanes=":0/1_2_0 0/0to0/1_0" intLanes=":0/1_7_0"/>
    <junction id=":0/1_11_0" type="internal" x="0.00" y="496.90" incLanes=":0/1_8_0 0/2to0/1_0" intLanes=":0/1_0_0"/>