<?xml version="1.0"?>

<!-- generated on Tue Mar 15 12:33:15 2016 by SUMO duarouter Version 0.13.1
<?xml version="1.0" encoding="iso-8859-1"?>

<configuration xmlns:xsi="http://www.w3.org/2001/XMLSchema-instance" xsi:noNamespaceSchemaLocation="http://sumo.sf.net/xsd/duarouterConfiguration.xsd">

    <input>
        <net-file value="smallGrid.net.xml"/>
        <flow-files value="flow.xml"/>
    </input>

    <output>
        <output-file value="smallGrid.rou.xml"/>
    </output>

    <time>
        <begin value="0"/>
        <end value="7200"/>
    </time>

</configuration>
-->

<routes xmlns:xsi="http://www.w3.org/2001/XMLSchema-instance" xsi:noNamespaceSchemaLocation="http://sumo.sf.net/xsd/routes_file.xsd">
    <vehicle id="0_0" depart="0.00">
        <route edges="0/1to1/1 1/1to2/1"/>
    </vehicle>
    <vehicle id="0_1" depart="36.00">
        <route edges="0/1to1/1 1/1to2/1"/>
    </vehicle>
    <vehicle id="0_2" depart="72.00">
        <route edges="0/1to1/1 1/1to2/1"/>
    </vehicle>
    <vehicle id="0_3" depart="108.00">
        <route edges="0/1to1/1 1/1to2/1"/>
    </vehicle>
    <vehicle id="0_4" depart="144.00">
        <route edges="0/1to1/1 1/1to2/1"/>
    </vehicle>
    <vehicle id="0_5" depart="180.00">
        <route edges="0/1to1/1 1/1to2/1"/>
    </vehicle>
    <vehicle id="0_6" depart="216.00">
        <route edges="0/1to1/1 1/1to2/1"/>
    </vehicle>
    <vehicle id="0_7" depart="252.00">
        <route edges="0/1to1/1 1/1to2/1"/>
    </vehicle>
    <vehicle id="0_8" depart="288.00">
        <route edges="0/1to1/1 1/1to2/1"/>
    </vehicle>
    <vehicle id="0_9" depart="324.00">
        <route edges="0/1to1/1 1/1to2/1"/>
    </vehicle>
    <vehicle id="0_10" depart="360.00">
        <route edges="0/1to1/1 1/1to2/1"/>
    </vehicle>
    <vehicle id="0_11" depart="396.00">
        <route edges="0/1to1/1 1/1to2/1"/>
    </vehicle>
    <vehicle id="0_12" depart="432.00">
        <route edges="0/1to1/1 1/1to2/1"/>
    </vehicle>
    <vehicle id="0_13" depart="468.00">
        <route edges="0/1to1/1 1/1to2/1"/>
    </vehicle>
    <vehicle id="0_14" depart="504.00">
        <route edges="0/1to1/1 1/1to2/1"/>
    </vehicle>
    <vehicle id="0_15" depart="540.00">
        <route edges="0/1to1/1 1/1to2/1"/>
    </vehicle>
    <vehicle id="0_16" depart="576.00">
        <route edges="0/1to1/1 1/1to2/1"/>
    </vehicle>
    <vehicle id="0_17" depart="612.00">
        <route edges="0/1to1/1 1/1to2/1"/>
    </vehicle>
    <vehicle id="0_18" depart="648.00">
        <route edges="0/1to1/1 1/1to2/1"/>
    </vehicle>
    <vehicle id="0_19" depart="684.00">
        <route edges="0/1to1/1 1/1to2/1"/>
    </vehicle>
    <vehicle id="0_20" depart="720.00">
        <route edges="0/1to1/1 1/1to2/1"/>
    </vehicle>
    <vehicle id="0_21" depart="756.00">
        <route edges="0/1to1/1 1/1to2/1"/>
    </vehicle>
    <vehicle id="0_22" depart="792.00">
        <route edges="0/1to1/1 1/1to2/1"/>
    </vehicle>
    <vehicle id="0_23" depart="828.00">
        <route edges="0/1to1/1 1/1to2/1"/>
    </vehicle>
    <vehicle id="0_24" depart="864.00">
        <route edges="0/1to1/1 1/1to2/1"/>
    </vehicle>
    <vehicle id="0_25" depart="900.00">
        <route edges="0/1to1/1 1/1to2/1"/>
    </vehicle>
    <vehicle id="0_26" depart="936.00">
        <route edges="0/1to1/1 1/1to2/1"/>
    </vehicle>
    <vehicle id="0_27" depart="972.00">
        <route edges="0/1to1/1 1/1to2/1"/>
    </vehicle>
    <vehicle id="0_28" depart="1008.00">
        <route edges="0/1to1/1 1/1to2/1"/>
    </vehicle>
    <vehicle id="0_29" depart="1044.00">
        <route edges="0/1to1/1 1/1to2/1"/>
    </vehicle>
    <vehicle id="0_30" depart="1080.00">
        <route edges="0/1to1/1 1/1to2/1"/>
    </vehicle>
    <vehicle id="0_31" depart="1116.00">
        <route edges="0/1to1/1 1/1to2/1"/>
    </vehicle>
    <vehicle id="0_32" depart="1152.00">
        <route edges="0/1to1/1 1/1to2/1"/>
    </vehicle>
    <vehicle id="0_33" depart="1188.00">
        <route edges="0/1to1/1 1/1to2/1"/>
    </vehicle>
    <vehicle id="0_34" depart="1224.00">
        <route edges="0/1to1/1 1/1to2/1"/>
    </vehicle>
    <vehicle id="0_35" depart="1260.00">
        <route edges="0/1to1/1 1/1to2/1"/>
    </vehicle>
    <vehicle id="0_36" depart="1296.00">
        <route edges="0/1to1/1 1/1to2/1"/>
    </vehicle>
    <vehicle id="0_37" depart="1332.00">
        <route edges="0/1to1/1 1/1to2/1"/>
    </vehicle>
    <vehicle id="0_38" depart="1368.00">
        <route edges="0/1to1/1 1/1to2/1"/>
    </vehicle>
    <vehicle id="0_39" depart="1404.00">
        <route edges="0/1to1/1 1/1to2/1"/>
    </vehicle>
    <vehicle id="0_40" depart="1440.00">
        <route edges="0/1to1/1 1/1to2/1"/>
    </vehicle>
    <vehicle id="0_41" depart="1476.00">
        <route edges="0/1to1/1 1/1to2/1"/>
    </vehicle>
    <vehicle id="0_42" depart="1512.00">
        <route edges="0/1to1/1 1/1to2/1"/>
    </vehicle>
    <vehicle id="0_43" depart="1548.00">
        <route edges="0/1to1/1 1/1to2/1"/>
    </vehicle>
    <vehicle id="0_44" depart="1584.00">
        <route edges="0/1to1/1 1/1to2/1"/>
    </vehicle>
    <vehicle id="0_45" depart="1620.00">
        <route edges="0/1to1/1 1/1to2/1"/>
    </vehicle>
    <vehicle id="0_46" depart="1656.00">
        <route edges="0/1to1/1 1/1to2/1"/>
    </vehicle>
    <vehicle id="0_47" depart="1692.00">
        <route edges="0/1to1/1 1/1to2/1"/>
    </vehicle>
    <vehicle id="0_48" depart="1728.00">
        <route edges="0/1to1/1 1/1to2/1"/>
    </vehicle>
    <vehicle id="0_49" depart="1764.00">
        <route edges="0/1to1/1 1/1to2/1"/>
    </vehicle>
    <vehicle id="0_50" depart="1800.00">
        <route edges="0/1to1/1 1/1to2/1"/>
    </vehicle>
    <vehicle id="0_51" depart="1836.00">
        <route edges="0/1to1/1 1/1to2/1"/>
    </vehicle>
    <vehicle id="0_52" depart="1872.00">
        <route edges="0/1to1/1 1/1to2/1"/>
    </vehicle>
    <vehicle id="0_53" depart="1908.00">
        <route edges="0/1to1/1 1/1to2/1"/>
    </vehicle>
    <vehicle id="0_54" depart="1944.00">
        <route edges="0/1to1/1 1/1to2/1"/>
    </vehicle>
    <vehicle id="0_55" depart="1980.00">
        <route edges="0/1to1/1 1/1to2/1"/>
    </vehicle>
    <vehicle id="0_56" depart="2016.00">
        <route edges="0/1to1/1 1/1to2/1"/>
    </vehicle>
    <vehicle id="0_57" depart="2052.00">
        <route edges="0/1to1/1 1/1to2/1"/>
    </vehicle>
    <vehicle id="0_58" depart="2088.00">
        <route edges="0/1to1/1 1/1to2/1"/>
    </vehicle>
    <vehicle id="0_59" depart="2124.00">
        <route edges="0/1to1/1 1/1to2/1"/>
    </vehicle>
    <vehicle id="0_60" depart="2160.00">
        <route edges="0/1to1/1 1/1to2/1"/>
    </vehicle>
    <vehicle id="0_61" depart="2196.00">
        <route edges="0/1to1/1 1/1to2/1"/>
    </vehicle>
    <vehicle id="0_62" depart="2232.00">
        <route edges="0/1to1/1 1/1to2/1"/>
    </vehicle>
    <vehicle id="0_63" depart="2268.00">
        <route edges="0/1to1/1 1/1to2/1"/>
    </vehicle>
    <vehicle id="0_64" depart="2304.00">
        <route edges="0/1to1/1 1/1to2/1"/>
    </vehicle>
    <vehicle id="0_65" depart="2340.00">
        <route edges="0/1to1/1 1/1to2/1"/>
    </vehicle>
    <vehicle id="0_66" depart="2376.00">
        <route edges="0/1to1/1 1/1to2/1"/>
    </vehicle>
    <vehicle id="0_67" depart="2412.00">
        <route edges="0/1to1/1 1/1to2/1"/>
    </vehicle>
    <vehicle id="0_68" depart="2448.00">
        <route edges="0/1to1/1 1/1to2/1"/>
    </vehicle>
    <vehicle id="0_69" depart="2484.00">
        <route edges="0/1to1/1 1/1to2/1"/>
    </vehicle>
    <vehicle id="0_70" depart="2520.00">
        <route edges="0/1to1/1 1/1to2/1"/>
    </vehicle>
    <vehicle id="0_71" depart="2556.00">
        <route edges="0/1to1/1 1/1to2/1"/>
    </vehicle>
    <vehicle id="0_72" depart="2592.00">
        <route edges="0/1to1/1 1/1to2/1"/>
    </vehicle>
    <vehicle id="0_73" depart="2628.00">
        <route edges="0/1to1/1 1/1to2/1"/>
    </vehicle>
    <vehicle id="0_74" depart="2664.00">
        <route edges="0/1to1/1 1/1to2/1"/>
    </vehicle>
    <vehicle id="0_75" depart="2700.00">
        <route edges="0/1to1/1 1/1to2/1"/>
    </vehicle>
    <vehicle id="0_76" depart="2736.00">
        <route edges="0/1to1/1 1/1to2/1"/>
    </vehicle>
    <vehicle id="0_77" depart="2772.00">
        <route edges="0/1to1/1 1/1to2/1"/>
    </vehicle>
    <vehicle id="0_78" depart="2808.00">
        <route edges="0/1to1/1 1/1to2/1"/>
    </vehicle>
    <vehicle id="0_79" depart="2844.00">
        <route edges="0/1to1/1 1/1to2/1"/>
    </vehicle>
    <vehicle id="0_80" depart="2880.00">
        <route edges="0/1to1/1 1/1to2/1"/>
    </vehicle>
    <vehicle id="0_81" depart="2916.00">
        <route edges="0/1to1/1 1/1to2/1"/>
    </vehicle>
    <vehicle id="0_82" depart="2952.00">
        <route edges="0/1to1/1 1/1to2/1"/>
    </vehicle>
    <vehicle id="0_83" depart="2988.00">
        <route edges="0/1to1/1 1/1to2/1"/>
    </vehicle>
    <vehicle id="0_84" depart="3024.00">
        <route edges="0/1to1/1 1/1to2/1"/>
    </vehicle>
    <vehicle id="0_85" depart="3060.00">
        <route edges="0/1to1/1 1/1to2/1"/>
    </vehicle>
    <vehicle id="0_86" depart="3096.00">
        <route edges="0/1to1/1 1/1to2/1"/>
    </vehicle>
    <vehicle id="0_87" depart="3132.00">
        <route edges="0/1to1/1 1/1to2/1"/>
    </vehicle>
    <vehicle id="0_88" depart="3168.00">
        <route edges="0/1to1/1 1/1to2/1"/>
    </vehicle>
    <vehicle id="0_89" depart="3204.00">
        <route edges="0/1to1/1 1/1to2/1"/>
    </vehicle>
    <vehicle id="0_90" depart="3240.00">
        <route edges="0/1to1/1 1/1to2/1"/>
    </vehicle>
    <vehicle id="0_91" depart="3276.00">
        <route edges="0/1to1/1 1/1to2/1"/>
    </vehicle>
    <vehicle id="0_92" depart="3312.00">
        <route edges="0/1to1/1 1/1to2/1"/>
    </vehicle>
    <vehicle id="0_93" depart="3348.00">
        <route edges="0/1to1/1 1/1to2/1"/>
    </vehicle>
    <vehicle id="0_94" depart="3384.00">
        <route edges="0/1to1/1 1/1to2/1"/>
    </vehicle>
    <vehicle id="0_95" depart="3420.00">
        <route edges="0/1to1/1 1/1to2/1"/>
    </vehicle>
    <vehicle id="0_96" depart="3456.00">
        <route edges="0/1to1/1 1/1to2/1"/>
    </vehicle>
    <vehicle id="0_97" depart="3492.00">
        <route edges="0/1to1/1 1/1to2/1"/>
    </vehicle>
    <vehicle id="0_98" depart="3528.00">
        <route edges="0/1to1/1 1/1to2/1"/>
    </vehicle>
    <vehicle id="0_99" depart="3564.00">
        <route edges="0/1to1/1 1/1to2/1"/>
    </vehicle>
    <vehicle id="0_100" depart="3600.00">
        <route edges="0/1to1/1 1/1to2/1"/>
    </vehicle>
    <vehicle id="0_101" depart="3636.00">
        <route edges="0/1to1/1 1/1to2/1"/>
    </vehicle>
    <vehicle id="0_102" depart="3672.00">
        <route edges="0/1to1/1 1/1to2/1"/>
    </vehicle>
    <vehicle id="0_103" depart="3708.00">
        <route edges="0/1to1/1 1/1to2/1"/>
    </vehicle>
    <vehicle id="0_104" depart="3744.00">
        <route edges="0/1to1/1 1/1to2/1"/>
    </vehicle>
    <vehicle id="0_105" depart="3780.00">
        <route edges="0/1to1/1 1/1to2/1"/>
    </vehicle>
    <vehicle id="0_106" depart="3816.00">
        <route edges="0/1to1/1 1/1to2/1"/>
    </vehicle>
    <vehicle id="0_107" depart="3852.00">
        <route edges="0/1to1/1 1/1to2/1"/>
    </vehicle>
    <vehicle id="0_108" depart="3888.00">
        <route edges="0/1to1/1 1/1to2/1"/>
    </vehicle>
    <vehicle id="0_109" depart="3924.00">
        <route edges="0/1to1/1 1/1to2/1"/>
    </vehicle>
    <vehicle id="0_110" depart="3960.00">
        <route edges="0/1to1/1 1/1to2/1"/>
    </vehicle>
    <vehicle id="0_111" depart="3996.00">
        <route edges="0/1to1/1 1/1to2/1"/>
    </vehicle>
    <vehicle id="0_112" depart="4032.00">
        <route edges="0/1to1/1 1/1to2/1"/>
    </vehicle>
    <vehicle id="0_113" depart="4068.00">
        <route edges="0/1to1/1 1/1to2/1"/>
    </vehicle>
    <vehicle id="0_114" depart="4104.00">
        <route edges="0/1to1/1 1/1to2/1"/>
    </vehicle>
    <vehicle id="0_115" depart="4140.00">
        <route edges="0/1to1/1 1/1to2/1"/>
    </vehicle>
    <vehicle id="0_116" depart="4176.00">
        <route edges="0/1to1/1 1/1to2/1"/>
    </vehicle>
    <vehicle id="0_117" depart="4212.00">
        <route edges="0/1to1/1 1/1to2/1"/>
    </vehicle>
    <vehicle id="0_118" depart="4248.00">
        <route edges="0/1to1/1 1/1to2/1"/>
    </vehicle>
    <vehicle id="0_119" depart="4284.00">
        <route edges="0/1to1/1 1/1to2/1"/>
    </vehicle>
    <vehicle id="0_120" depart="4320.00">
        <route edges="0/1to1/1 1/1to2/1"/>
    </vehicle>
    <vehicle id="0_121" depart="4356.00">
        <route edges="0/1to1/1 1/1to2/1"/>
    </vehicle>
    <vehicle id="0_122" depart="4392.00">
        <route edges="0/1to1/1 1/1to2/1"/>
    </vehicle>
    <vehicle id="0_123" depart="4428.00">
        <route edges="0/1to1/1 1/1to2/1"/>
    </vehicle>
    <vehicle id="0_124" depart="4464.00">
        <route edges="0/1to1/1 1/1to2/1"/>
    </vehicle>
    <vehicle id="0_125" depart="4500.00">
        <route edges="0/1to1/1 1/1to2/1"/>
    </vehicle>
    <vehicle id="0_126" depart="4536.00">
        <route edges="0/1to1/1 1/1to2/1"/>
    </vehicle>
    <vehicle id="0_127" depart="4572.00">
        <route edges="0/1to1/1 1/1to2/1"/>
    </vehicle>
    <vehicle id="0_128" depart="4608.00">
        <route edges="0/1to1/1 1/1to2/1"/>
    </vehicle>
    <vehicle id="0_129" depart="4644.00">
        <route edges="0/1to1/1 1/1to2/1"/>
    </vehicle>
    <vehicle id="0_130" depart="4680.00">
        <route edges="0/1to1/1 1/1to2/1"/>
    </vehicle>
    <vehicle id="0_131" depart="4716.00">
        <route edges="0/1to1/1 1/1to2/1"/>
    </vehicle>
    <vehicle id="0_132" depart="4752.00">
        <route edges="0/1to1/1 1/1to2/1"/>
    </vehicle>
    <vehicle id="0_133" depart="4788.00">
        <route edges="0/1to1/1 1/1to2/1"/>
    </vehicle>
    <vehicle id="0_134" depart="4824.00">
        <route edges="0/1to1/1 1/1to2/1"/>
    </vehicle>
    <vehicle id="0_135" depart="4860.00">
        <route edges="0/1to1/1 1/1to2/1"/>
    </vehicle>
    <vehicle id="0_136" depart="4896.00">
        <route edges="0/1to1/1 1/1to2/1"/>
    </vehicle>
    <vehicle id="0_137" depart="4932.00">
        <route edges="0/1to1/1 1/1to2/1"/>
    </vehicle>
    <vehicle id="0_138" depart="4968.00">
        <route edges="0/1to1/1 1/1to2/1"/>
    </vehicle>
    <vehicle id="0_139" depart="5004.00">
        <route edges="0/1to1/1 1/1to2/1"/>
    </vehicle>
    <vehicle id="0_140" depart="5040.00">
        <route edges="0/1to1/1 1/1to2/1"/>
    </vehicle>
    <vehicle id="0_141" depart="5076.00">
        <route edges="0/1to1/1 1/1to2/1"/>
    </vehicle>
    <vehicle id="0_142" depart="5112.00">
        <route edges="0/1to1/1 1/1to2/1"/>
    </vehicle>
    <vehicle id="0_143" depart="5148.00">
        <route edges="0/1to1/1 1/1to2/1"/>
    </vehicle>
    <vehicle id="0_144" depart="5184.00">
        <route edges="0/1to1/1 1/1to2/1"/>
    </vehicle>
    <vehicle id="0_145" depart="5220.00">
        <route edges="0/1to1/1 1/1to2/1"/>
    </vehicle>
    <vehicle id="0_146" depart="5256.00">
        <route edges="0/1to1/1 1/1to2/1"/>
    </vehicle>
    <vehicle id="0_147" depart="5292.00">
        <route edges="0/1to1/1 1/1to2/1"/>
    </vehicle>
    <vehicle id="0_148" depart="5328.00">
        <route edges="0/1to1/1 1/1to2/1"/>
    </vehicle>
    <vehicle id="0_149" depart="5364.00">
        <route edges="0/1to1/1 1/1to2/1"/>
    </vehicle>
    <vehicle id="0_150" depart="5400.00">
        <route edges="0/1to1/1 1/1to2/1"/>
    </vehicle>
    <vehicle id="0_151" depart="5436.00">
        <route edges="0/1to1/1 1/1to2/1"/>
    </vehicle>
    <vehicle id="0_152" depart="5472.00">
        <route edges="0/1to1/1 1/1to2/1"/>
    </vehicle>
    <vehicle id="0_153" depart="5508.00">
        <route edges="0/1to1/1 1/1to2/1"/>
    </vehicle>
    <vehicle id="0_154" depart="5544.00">
        <route edges="0/1to1/1 1/1to2/1"/>
    </vehicle>
    <vehicle id="0_155" depart="5580.00">
        <route edges="0/1to1/1 1/1to2/1"/>
    </vehicle>
    <vehicle id="0_156" depart="5616.00">
        <route edges="0/1to1/1 1/1to2/1"/>
    </vehicle>
    <vehicle id="0_157" depart="5652.00">
        <route edges="0/1to1/1 1/1to2/1"/>
    </vehicle>
    <vehicle id="0_158" depart="5688.00">
        <route edges="0/1to1/1 1/1to2/1"/>
    </vehicle>
    <vehicle id="0_159" depart="5724.00">
        <route edges="0/1to1/1 1/1to2/1"/>
    </vehicle>
    <vehicle id="0_160" depart="5760.00">
        <route edges="0/1to1/1 1/1to2/1"/>
    </vehicle>
    <vehicle id="0_161" depart="5796.00">
        <route edges="0/1to1/1 1/1to2/1"/>
    </vehicle>
    <vehicle id="0_162" depart="5832.00">
        <route edges="0/1to1/1 1/1to2/1"/>
    </vehicle>
    <vehicle id="0_163" depart="5868.00">
        <route edges="0/1to1/1 1/1to2/1"/>
    </vehicle>
    <vehicle id="0_164" depart="5904.00">
        <route edges="0/1to1/1 1/1to2/1"/>
    </vehicle>
    <vehicle id="0_165" depart="5940.00">
        <route edges="0/1to1/1 1/1to2/1"/>
    </vehicle>
    <vehicle id="0_166" depart="5976.00">
        <route edges="0/1to1/1 1/1to2/1"/>
    </vehicle>
    <vehicle id="0_167" depart="6012.00">
        <route edges="0/1to1/1 1/1to2/1"/>
    </vehicle>
    <vehicle id="0_168" depart="6048.00">
        <route edges="0/1to1/1 1/1to2/1"/>
    </vehicle>
    <vehicle id="0_169" depart="6084.00">
        <route edges="0/1to1/1 1/1to2/1"/>
    </vehicle>
    <vehicle id="0_170" depart="6120.00">
        <route edges="0/1to1/1 1/1to2/1"/>
    </vehicle>
    <vehicle id="0_171" depart="6156.00">
        <route edges="0/1to1/1 1/1to2/1"/>
    </vehicle>
    <vehicle id="0_172" depart="6192.00">
        <route edges="0/1to1/1 1/1to2/1"/>
    </vehicle>
    <vehicle id="0_173" depart="6228.00">
        <route edges="0/1to1/1 1/1to2/1"/>
    </vehicle>
    <vehicle id="0_174" depart="6264.00">
        <route edges="0/1to1/1 1/1to2/1"/>
    </vehicle>
    <vehicle id="0_175" depart="6300.00">
        <route edges="0/1to1/1 1/1to2/1"/>
    </vehicle>
    <vehicle id="0_176" depart="6336.00">
        <route edges="0/1to1/1 1/1to2/1"/>
    </vehicle>
    <vehicle id="0_177" depart="6372.00">
        <route edges="0/1to1/1 1/1to2/1"/>
    </vehicle>
    <vehicle id="0_178" depart="6408.00">
        <route edges="0/1to1/1 1/1to2/1"/>
    </vehicle>
    <vehicle id="0_179" depart="6444.00">
        <route edges="0/1to1/1 1/1to2/1"/>
    </vehicle>
    <vehicle id="0_180" depart="6480.00">
        <route edges="0/1to1/1 1/1to2/1"/>
    </vehicle>
    <vehicle id="0_181" depart="6516.00">
        <route edges="0/1to1/1 1/1to2/1"/>
    </vehicle>
    <vehicle id="0_182" depart="6552.00">
        <route edges="0/1to1/1 1/1to2/1"/>
    </vehicle>
    <vehicle id="0_183" depart="6588.00">
        <route edges="0/1to1/1 1/1to2/1"/>
    </vehicle>
    <vehicle id="0_184" depart="6624.00">
        <route edges="0/1to1/1 1/1to2/1"/>
    </vehicle>
    <vehicle id="0_185" depart="6660.00">
        <route edges="0/1to1/1 1/1to2/1"/>
    </vehicle>
    <vehicle id="0_186" depart="6696.00">
        <route edges="0/1to1/1 1/1to2/1"/>
    </vehicle>
    <vehicle id="0_187" depart="6732.00">
        <route edges="0/1to1/1 1/1to2/1"/>
    </vehicle>
    <vehicle id="0_188" depart="6768.00">
        <route edges="0/1to1/1 1/1to2/1"/>
    </vehicle>
    <vehicle id="0_189" depart="6804.00">
        <route edges="0/1to1/1 1/1to2/1"/>
    </vehicle>
    <vehicle id="0_190" depart="6840.00">
        <route edges="0/1to1/1 1/1to2/1"/>
    </vehicle>
    <vehicle id="0_191" depart="6876.00">
        <route edges="0/1to1/1 1/1to2/1"/>
    </vehicle>
    <vehicle id="0_192" depart="6912.00">
        <route edges="0/1to1/1 1/1to2/1"/>
    </vehicle>
    <vehicle id="0_193" depart="6948.00">
        <route edges="0/1to1/1 1/1to2/1"/>
    </vehicle>
    <vehicle id="0_194" depart="6984.00">
        <route edges="0/1to1/1 1/1to2/1"/>
    </vehicle>
    <vehicle id="0_195" depart="7020.00">
        <route edges="0/1to1/1 1/1to2/1"/>
    </vehicle>
    <vehicle id="0_196" depart="7056.00">
        <route edges="0/1to1/1 1/1to2/1"/>
    </vehicle>
    <vehicle id="0_197" depart="7092.00">
        <route edges="0/1to1/1 1/1to2/1"/>
    </vehicle>
    <vehicle id="0_198" depart="7128.00">
        <route edges="0/1to1/1 1/1to2/1"/>
    </vehicle>
    <vehicle id="0_199" depart="7164.00">
        <route edges="0/1to1/1 1/1to2/1"/>
    </vehicle>
</routes>
