[General]
cmdenv-express-mode = true #true
cmdenv-autoflush = false #true
#cmdenv-status-frequency = 10000000s
cmdenv-status-frequency = 50000s #Default Recomended

tkenv-default-config = General #accident
#tkenv-default-run = 1
tkenv-image-path = bitmaps

ned-path = ../../src/base;../../src/modules;../../examples;
network = scenario

##########################################################
#			Simulation parameters                        #
##########################################################
debug-on-errors = false #true
print-undisposed = false  #false

#sim-time-limit = 6000s
sim-time-limit = 7200s


**.udpapp.*.vector-recording = false  #true
**.vector-recording = false  #true
**.scalar-recording = false #true

**.debug = false #true
**.coreDebug = false #false

#The size of the city is from: 4k,5k to: 33k,38k meters.
*.playgroundSizeX = 35000m	# DAMN BIG! City of Cologne!
*.playgroundSizeY = 40000m
*.playgroundSizeZ = 10000m

record-eventlog = true #true, this to record a log file

##########################################################
#			WorldUtility parameters                      #
##########################################################
*.world.useTorus = true #false  I turn on this ,cause cause a warning at the beginning
*.world.use2D = true #true

##########################################################
#			TraCIScenarioManager parameters              #
##########################################################
#*.manager.updateInterval = 0.5s # Using this value to check faster the car movements.
*.manager.updateInterval = 1s # Using this value to check faster the car movements.
*.manager.host = "localhost"
*.manager.port = 9999
*.manager.moduleType = "org.mixim.examples.traci_launchd.Car"
*.manager.moduleName = "node"
*.manager.moduleDisplayString = ""
*.manager.autoShutdown = true
*.manager.margin = 0
#*.manager.launchConfig = xmldoc("sumo-launchd.launch.xml") #Original SUMO files.
#*.manager.launchConfig = xmldoc("testbed.launch.xml")		#Petite simulation
#*.manager.launchConfig = xmldoc("small.launch.xml")		#small simulation
#*.manager.launchConfig = xmldoc("koln.launch.xml")		#My own SUMO files
*.manager.launchConfig = xmldoc("cologne.launch.xml")		#Big simulation.

###############################
#Vechicles' Description...
###############################
################channel parameters####################
*.connectionManager.sendDirect = false
*.connectionManager.pMax = 100mW
*.connectionManager.sat = -84dBm
*.connectionManager.alpha = 3.0
*.connectionManager.carrierFrequency = 2.412e+9Hz
################ PhyLayer parameters #####################
*.node[*].nic.phy.usePropagationDelay = false
*.node[*].nic.phy.thermalNoise = -100dBm
*.node[*].nic.phy.useThermalNoise = true
*.node[*].nic.phy.analogueModels = xmldoc("config.xml")
*.node[*].nic.phy.decider = xmldoc("config.xml")
*.node[*].nic.phy.timeRXToTX = 0.00021s
*.node[*].nic.phy.timeRXToSleep = 0.000031s
*.node[*].nic.phy.timeTXToRX = 0.00012s
*.node[*].nic.phy.timeTXToSleep = 0.000032s
*.node[*].nic.phy.timeSleepToRX = 0.000102s
*.node[*].nic.phy.timeSleepToTX = 0.000203s
*.node[*].nic.phy.sensitivity = -80dBm
*.node[*].nic.phy.maxTXPower = 100.0mW
*.node[*].nic.phy.initialRadioState = 0
#*.*.nic.phy.coreDebug = true #Arturo to check where the heck are the collisions. it Does not work!
################ MAC layer parameters ####################
*.node[*].nic.mac.queueLength = 5
*.node[*].nic.mac.headerLength = 24bit
*.node[*].nic.mac.slotDuration = 0.04s
*.node[*].nic.mac.difs = 0.0005s
*.node[*].nic.mac.maxTxAttempts = 14
*.node[*].nic.mac.defaultChannel = 0
*.node[*].nic.mac.bitrate = 15360bps
*.node[*].nic.mac.contentionWindow = 20
*.node[*].nic.mac.txPower = 100mW  # [mW]
#*.*.nic.mac.coreDebug = true #Arturo to check where the heck are the collisions. it Does not work!
################ NETW layer parameters ####################
*.node[*].netwType = "BaseNetwLayer"
*.node[*].net.debug = false
*.node[*].net.stats = false
*.node[*].net.headerLength = 32bit
################ Mobility parameters #####################
*.node[*].mobility.x = 0
*.node[*].mobility.y = 0
*.node[*].mobility.z = 0
*.node[*].mobility.accidentCount = 0
*.node[*].mobility.accidentStart = -1s
*.node[*].mobility.accidentDuration = -1s
*.node[*].mobility.accidentInterval = -1s

*.node[*].applType = "TraCIDemo"
*.node[*].appl.debug = false
*.node[*].mobilityType = "TraCIMobility"
*.node[*].mobility.debug = false
*.node[*].mobility.speed = 1mps
*.node[*].mobility.updateInterval = 0.1s
*.node[*].appl.timeT= 5s #passing value of time T fore VEhicles.
*.node[*].appl.epicenterValue= 20m #passing value of epicenter junction.

#*.node[*].netwType = "BaseNetwLayer"
#*.node[*].net.debug = false
#*.node[*].net.stats = false
#*.node[*].net.headerLength = 32bit


################ PhyLayer parameters #####################
scenario.VPA[*].nic.phy.usePropagationDelay = false
scenario.VPA[*].nic.phy.thermalNoise = -100dBm
scenario.VPA[*].nic.phy.useThermalNoise = true
scenario.VPA[*].nic.phy.analogueModels = xmldoc("config.xml")
scenario.VPA[*].nic.phy.decider = xmldoc("config.xml")
scenario.VPA[*].nic.phy.timeRXToTX = 0.00021s
scenario.VPA[*].nic.phy.timeRXToSleep = 0.000031s
scenario.VPA[*].nic.phy.timeTXToRX = 0.00012s
scenario.VPA[*].nic.phy.timeTXToSleep = 0.000032s
scenario.VPA[*].nic.phy.timeSleepToRX = 0.000102s
scenario.VPA[*].nic.phy.timeSleepToTX = 0.000203s
scenario.VPA[*].nic.phy.sensitivity = -80dBm
scenario.VPA[*].nic.phy.maxTXPower = 100.0mW
scenario.VPA[*].nic.phy.initialRadioState = 0
################ MAC layer parameters ####################
scenario.VPA[*].nic.mac.rxSetupTime = 0s
scenario.VPA[*].nic.mac.useMACAcks = false
scenario.VPA[*].nic.mac.queueLength = 5
scenario.VPA[*].nic.mac.headerLength = 24bit
scenario.VPA[*].nic.mac.slotDuration = 0.04s
scenario.VPA[*].nic.mac.difs = 0.0005s
scenario.VPA[*].nic.mac.maxTxAttempts = 14
scenario.VPA[*].nic.mac.defaultChannel = 0
scenario.VPA[*].nic.mac.bitrate = 15360bps
scenario.VPA[*].nic.mac.contentionWindow = 20
scenario.VPA[*].nic.mac.txPower = 100mW  # [mW]
scenario.VPA[*].nic.mac.aTurnaroundTime = 0.000215s

#VPA APPLICATION PROGRAM located in mixim/src/modules/application/ 
scenario.VPA[*].applType = "BurstApplLayer" #OK. Basé sur la classe: TestApplLayer
scenario.VPA[*].appl.headerLength = 32bit
scenario.VPA[*].appl.burstSize = 1
scenario.VPA[*].appl.burstReply = true
scenario.VPA[*].appl.timeT = 5s #passing value of time T for VPAs.

scenario.VPA[*].mobilityType = "LinearMobility"
scenario.VPA[*].mobility.debug = true 
scenario.VPA[*].mobility.speed = 0mps
scenario.VPA[*].mobility.updateInterval = 0.1s

scenario.VPA[*].netwType = "BaseNetwLayer"
scenario.VPA[*].net.debug = false
scenario.VPA[*].net.stats = false
scenario.VPA[*].net.headerLength = 32bit


###############################
#ROAD SIDE UNITS IN THE CITY OF COLOGNE.. ! DAMN IT's SO BIG.. & COOL..
###############################
#Number of VPAs to have
scenario.numNodes = 957

scenario.VPA[0].linearMobility.x = 4663
scenario.VPA[0].linearMobility.y = 36194
scenario.VPA[1].linearMobility.x = 4468
scenario.VPA[1].linearMobility.y = 35403
scenario.VPA[2].linearMobility.x = 4554
scenario.VPA[2].linearMobility.y = 34612
scenario.VPA[3].linearMobility.x = 4343
scenario.VPA[3].linearMobility.y = 33217
scenario.VPA[4].linearMobility.x = 4538
scenario.VPA[4].linearMobility.y = 32342
scenario.VPA[5].linearMobility.x = 4557
scenario.VPA[5].linearMobility.y = 31237
scenario.VPA[6].linearMobility.x = 4414
scenario.VPA[6].linearMobility.y = 30424
scenario.VPA[7].linearMobility.x = 4568
scenario.VPA[7].linearMobility.y = 29330
scenario.VPA[8].linearMobility.x = 4793
scenario.VPA[8].linearMobility.y = 28379
scenario.VPA[9].linearMobility.x = 4554
scenario.VPA[9].linearMobility.y = 27242
scenario.VPA[10].linearMobility.x = 4444
scenario.VPA[10].linearMobility.y = 26348
scenario.VPA[11].linearMobility.x = 4611
scenario.VPA[11].linearMobility.y = 25558
scenario.VPA[12].linearMobility.x = 4696
scenario.VPA[12].linearMobility.y = 24489
scenario.VPA[13].linearMobility.x = 4591
scenario.VPA[13].linearMobility.y = 23361
scenario.VPA[14].linearMobility.x = 4545
scenario.VPA[14].linearMobility.y = 22450
scenario.VPA[15].linearMobility.x = 4640
scenario.VPA[15].linearMobility.y = 21315
scenario.VPA[16].linearMobility.x = 4457
scenario.VPA[16].linearMobility.y = 20620
scenario.VPA[17].linearMobility.x = 4139
scenario.VPA[17].linearMobility.y = 19417
scenario.VPA[18].linearMobility.x = 4663
scenario.VPA[18].linearMobility.y = 18374
scenario.VPA[19].linearMobility.x = 4785
scenario.VPA[19].linearMobility.y = 17584
scenario.VPA[20].linearMobility.x = 4696
scenario.VPA[20].linearMobility.y = 16381
scenario.VPA[21].linearMobility.x = 4847
scenario.VPA[21].linearMobility.y = 15653
scenario.VPA[22].linearMobility.x = 4726
scenario.VPA[22].linearMobility.y = 14476
scenario.VPA[23].linearMobility.x = 4801
scenario.VPA[23].linearMobility.y = 13420
scenario.VPA[24].linearMobility.x = 4749
scenario.VPA[24].linearMobility.y = 12676
scenario.VPA[25].linearMobility.x = 4772
scenario.VPA[25].linearMobility.y = 11135
scenario.VPA[26].linearMobility.x = 4408
scenario.VPA[26].linearMobility.y = 10410
scenario.VPA[27].linearMobility.x = 4940
scenario.VPA[27].linearMobility.y = 9374
scenario.VPA[28].linearMobility.x = 4719
scenario.VPA[28].linearMobility.y = 8230
scenario.VPA[29].linearMobility.x = 4814
scenario.VPA[29].linearMobility.y = 7443
scenario.VPA[30].linearMobility.x = 4959
scenario.VPA[30].linearMobility.y = 6502
scenario.VPA[31].linearMobility.x = 4820
scenario.VPA[31].linearMobility.y = 4986
scenario.VPA[32].linearMobility.x = 4529
scenario.VPA[32].linearMobility.y = 4697
scenario.VPA[33].linearMobility.x = 5331
scenario.VPA[33].linearMobility.y = 36061
scenario.VPA[34].linearMobility.x = 5596
scenario.VPA[34].linearMobility.y = 35336
scenario.VPA[35].linearMobility.x = 5246
scenario.VPA[35].linearMobility.y = 34498
scenario.VPA[36].linearMobility.x = 5274
scenario.VPA[36].linearMobility.y = 33721
scenario.VPA[37].linearMobility.x = 5092
scenario.VPA[37].linearMobility.y = 32043
scenario.VPA[38].linearMobility.x = 5696
scenario.VPA[38].linearMobility.y = 31449
scenario.VPA[39].linearMobility.x = 5288
scenario.VPA[39].linearMobility.y = 30252
scenario.VPA[40].linearMobility.x = 5617
scenario.VPA[40].linearMobility.y = 29441
scenario.VPA[41].linearMobility.x = 5381
scenario.VPA[41].linearMobility.y = 28608
scenario.VPA[42].linearMobility.x = 5489
scenario.VPA[42].linearMobility.y = 27429
scenario.VPA[43].linearMobility.x = 5421
scenario.VPA[43].linearMobility.y = 26243
scenario.VPA[44].linearMobility.x = 5238
scenario.VPA[44].linearMobility.y = 25482
scenario.VPA[45].linearMobility.x = 5814
scenario.VPA[45].linearMobility.y = 24106
scenario.VPA[46].linearMobility.x = 5485
scenario.VPA[46].linearMobility.y = 23377
scenario.VPA[47].linearMobility.x = 5242
scenario.VPA[47].linearMobility.y = 22602
scenario.VPA[48].linearMobility.x = 5592
scenario.VPA[48].linearMobility.y = 21505
scenario.VPA[49].linearMobility.x = 5306
scenario.VPA[49].linearMobility.y = 20337
scenario.VPA[50].linearMobility.x = 5506
scenario.VPA[50].linearMobility.y = 19486
scenario.VPA[51].linearMobility.x = 5589
scenario.VPA[51].linearMobility.y = 18361
scenario.VPA[52].linearMobility.x = 5474
scenario.VPA[52].linearMobility.y = 17367
scenario.VPA[53].linearMobility.x = 5317
scenario.VPA[53].linearMobility.y = 16396
scenario.VPA[54].linearMobility.x = 5342
scenario.VPA[54].linearMobility.y = 15467
scenario.VPA[55].linearMobility.x = 5299
scenario.VPA[55].linearMobility.y = 14677
scenario.VPA[56].linearMobility.x = 5610
scenario.VPA[56].linearMobility.y = 13623
scenario.VPA[57].linearMobility.x = 5406
scenario.VPA[57].linearMobility.y = 12558
scenario.VPA[58].linearMobility.x = 5617
scenario.VPA[58].linearMobility.y = 11297
scenario.VPA[59].linearMobility.x = 5467
scenario.VPA[59].linearMobility.y = 10515
scenario.VPA[60].linearMobility.x = 5517
scenario.VPA[60].linearMobility.y = 9225
scenario.VPA[61].linearMobility.x = 5267
scenario.VPA[61].linearMobility.y = 8646
scenario.VPA[62].linearMobility.x = 5692
scenario.VPA[62].linearMobility.y = 7528
scenario.VPA[63].linearMobility.x = 5621
scenario.VPA[63].linearMobility.y = 6670
scenario.VPA[64].linearMobility.x = 5814
scenario.VPA[64].linearMobility.y = 5605
scenario.VPA[65].linearMobility.x = 5360
scenario.VPA[65].linearMobility.y = 4819
scenario.VPA[66].linearMobility.x = 6625
scenario.VPA[66].linearMobility.y = 36050
scenario.VPA[67].linearMobility.x = 6706
scenario.VPA[67].linearMobility.y = 35578
scenario.VPA[68].linearMobility.x = 6218
scenario.VPA[68].linearMobility.y = 34339
scenario.VPA[69].linearMobility.x = 6325
scenario.VPA[69].linearMobility.y = 33864
scenario.VPA[70].linearMobility.x = 6773
scenario.VPA[70].linearMobility.y = 32201
scenario.VPA[71].linearMobility.x = 6353
scenario.VPA[71].linearMobility.y = 31669
scenario.VPA[72].linearMobility.x = 6448
scenario.VPA[72].linearMobility.y = 30690
scenario.VPA[73].linearMobility.x = 6163
scenario.VPA[73].linearMobility.y = 29146
scenario.VPA[74].linearMobility.x = 6554
scenario.VPA[74].linearMobility.y = 28320
scenario.VPA[75].linearMobility.x = 6560
scenario.VPA[75].linearMobility.y = 27760
scenario.VPA[76].linearMobility.x = 6534
scenario.VPA[76].linearMobility.y = 26395
scenario.VPA[77].linearMobility.x = 6857
scenario.VPA[77].linearMobility.y = 25703
scenario.VPA[78].linearMobility.x = 6286
scenario.VPA[78].linearMobility.y = 24652
scenario.VPA[79].linearMobility.x = 6308
scenario.VPA[79].linearMobility.y = 23131
scenario.VPA[80].linearMobility.x = 6551
scenario.VPA[80].linearMobility.y = 22200
scenario.VPA[81].linearMobility.x = 6564
scenario.VPA[81].linearMobility.y = 21040
scenario.VPA[82].linearMobility.x = 6687
scenario.VPA[82].linearMobility.y = 20547
scenario.VPA[83].linearMobility.x = 6493
scenario.VPA[83].linearMobility.y = 19584
scenario.VPA[84].linearMobility.x = 6482
scenario.VPA[84].linearMobility.y = 18198
scenario.VPA[85].linearMobility.x = 6689
scenario.VPA[85].linearMobility.y = 17644
scenario.VPA[86].linearMobility.x = 6258
scenario.VPA[86].linearMobility.y = 16295
scenario.VPA[87].linearMobility.x = 6689
scenario.VPA[87].linearMobility.y = 15427
scenario.VPA[88].linearMobility.x = 6812
scenario.VPA[88].linearMobility.y = 14091
scenario.VPA[89].linearMobility.x = 6478
scenario.VPA[89].linearMobility.y = 13843
scenario.VPA[90].linearMobility.x = 6556
scenario.VPA[90].linearMobility.y = 12703
scenario.VPA[91].linearMobility.x = 6726
scenario.VPA[91].linearMobility.y = 11113
scenario.VPA[92].linearMobility.x = 6648
scenario.VPA[92].linearMobility.y = 10047
scenario.VPA[93].linearMobility.x = 6230
scenario.VPA[93].linearMobility.y = 9424
scenario.VPA[94].linearMobility.x = 6142
scenario.VPA[94].linearMobility.y = 8624
scenario.VPA[95].linearMobility.x = 6433
scenario.VPA[95].linearMobility.y = 7575
scenario.VPA[96].linearMobility.x = 6721
scenario.VPA[96].linearMobility.y = 6388
scenario.VPA[97].linearMobility.x = 6499
scenario.VPA[97].linearMobility.y = 5440
scenario.VPA[98].linearMobility.x = 6581
scenario.VPA[98].linearMobility.y = 4569
scenario.VPA[99].linearMobility.x = 7828
scenario.VPA[99].linearMobility.y = 36295
scenario.VPA[100].linearMobility.x = 7652
scenario.VPA[100].linearMobility.y = 35203
scenario.VPA[101].linearMobility.x = 7710
scenario.VPA[101].linearMobility.y = 34688
scenario.VPA[102].linearMobility.x = 7224
scenario.VPA[102].linearMobility.y = 33275
scenario.VPA[103].linearMobility.x = 7633
scenario.VPA[103].linearMobility.y = 32312
scenario.VPA[104].linearMobility.x = 7462
scenario.VPA[104].linearMobility.y = 31398
scenario.VPA[105].linearMobility.x = 7250
scenario.VPA[105].linearMobility.y = 29999
scenario.VPA[106].linearMobility.x = 7485
scenario.VPA[106].linearMobility.y = 29556
scenario.VPA[107].linearMobility.x = 7207
scenario.VPA[107].linearMobility.y = 28726
scenario.VPA[108].linearMobility.x = 7283
scenario.VPA[108].linearMobility.y = 27310
scenario.VPA[109].linearMobility.x = 7660
scenario.VPA[109].linearMobility.y = 26107
scenario.VPA[110].linearMobility.x = 7437
scenario.VPA[110].linearMobility.y = 25471
scenario.VPA[111].linearMobility.x = 7593
scenario.VPA[111].linearMobility.y = 24555
scenario.VPA[112].linearMobility.x = 7910
scenario.VPA[112].linearMobility.y = 23208
scenario.VPA[113].linearMobility.x = 7934
scenario.VPA[113].linearMobility.y = 22752
scenario.VPA[114].linearMobility.x = 7322
scenario.VPA[114].linearMobility.y = 21561
scenario.VPA[115].linearMobility.x = 7269
scenario.VPA[115].linearMobility.y = 20492
scenario.VPA[116].linearMobility.x = 7410
scenario.VPA[116].linearMobility.y = 19861
scenario.VPA[117].linearMobility.x = 7328
scenario.VPA[117].linearMobility.y = 18260
scenario.VPA[118].linearMobility.x = 7440
scenario.VPA[118].linearMobility.y = 17375
scenario.VPA[119].linearMobility.x = 7246
scenario.VPA[119].linearMobility.y = 16228
scenario.VPA[120].linearMobility.x = 7302
scenario.VPA[120].linearMobility.y = 15052
scenario.VPA[121].linearMobility.x = 7567
scenario.VPA[121].linearMobility.y = 14507
scenario.VPA[122].linearMobility.x = 7261
scenario.VPA[122].linearMobility.y = 13633
scenario.VPA[123].linearMobility.x = 7765
scenario.VPA[123].linearMobility.y = 12786
scenario.VPA[124].linearMobility.x = 7393
scenario.VPA[124].linearMobility.y = 11864
scenario.VPA[125].linearMobility.x = 7690
scenario.VPA[125].linearMobility.y = 10747
scenario.VPA[126].linearMobility.x = 7252
scenario.VPA[126].linearMobility.y = 9537
scenario.VPA[127].linearMobility.x = 7771
scenario.VPA[127].linearMobility.y = 8378
scenario.VPA[128].linearMobility.x = 7469
scenario.VPA[128].linearMobility.y = 7441
scenario.VPA[129].linearMobility.x = 7235
scenario.VPA[129].linearMobility.y = 6409
scenario.VPA[130].linearMobility.x = 7840
scenario.VPA[130].linearMobility.y = 5588
scenario.VPA[131].linearMobility.x = 7354
scenario.VPA[131].linearMobility.y = 4374
scenario.VPA[132].linearMobility.x = 8505
scenario.VPA[132].linearMobility.y = 35988
scenario.VPA[133].linearMobility.x = 8208
scenario.VPA[133].linearMobility.y = 35532
scenario.VPA[134].linearMobility.x = 8924
scenario.VPA[134].linearMobility.y = 34240
scenario.VPA[135].linearMobility.x = 8268
scenario.VPA[135].linearMobility.y = 33430
scenario.VPA[136].linearMobility.x = 8712
scenario.VPA[136].linearMobility.y = 32450
scenario.VPA[137].linearMobility.x = 8584
scenario.VPA[137].linearMobility.y = 31458
scenario.VPA[138].linearMobility.x = 8817
scenario.VPA[138].linearMobility.y = 30391
scenario.VPA[139].linearMobility.x = 8839
scenario.VPA[139].linearMobility.y = 29311
scenario.VPA[140].linearMobility.x = 8419
scenario.VPA[140].linearMobility.y = 28795
scenario.VPA[141].linearMobility.x = 8243
scenario.VPA[141].linearMobility.y = 27606
scenario.VPA[142].linearMobility.x = 8648
scenario.VPA[142].linearMobility.y = 26156
scenario.VPA[143].linearMobility.x = 8478
scenario.VPA[143].linearMobility.y = 25172
scenario.VPA[144].linearMobility.x = 8365
scenario.VPA[144].linearMobility.y = 24315
scenario.VPA[145].linearMobility.x = 8737
scenario.VPA[145].linearMobility.y = 23237
scenario.VPA[146].linearMobility.x = 8338
scenario.VPA[146].linearMobility.y = 22223
scenario.VPA[147].linearMobility.x = 8090
scenario.VPA[147].linearMobility.y = 21716
scenario.VPA[148].linearMobility.x = 8182
scenario.VPA[148].linearMobility.y = 20741
scenario.VPA[149].linearMobility.x = 8144
scenario.VPA[149].linearMobility.y = 19727
scenario.VPA[150].linearMobility.x = 8171
scenario.VPA[150].linearMobility.y = 18773
scenario.VPA[151].linearMobility.x = 8845
scenario.VPA[151].linearMobility.y = 17786
scenario.VPA[152].linearMobility.x = 8365
scenario.VPA[152].linearMobility.y = 16234
scenario.VPA[153].linearMobility.x = 8656
scenario.VPA[153].linearMobility.y = 15269
scenario.VPA[154].linearMobility.x = 8365
scenario.VPA[154].linearMobility.y = 14719
scenario.VPA[155].linearMobility.x = 8548
scenario.VPA[155].linearMobility.y = 13808
scenario.VPA[156].linearMobility.x = 8309
scenario.VPA[156].linearMobility.y = 12345
scenario.VPA[157].linearMobility.x = 8241
scenario.VPA[157].linearMobility.y = 11134
scenario.VPA[158].linearMobility.x = 8354
scenario.VPA[158].linearMobility.y = 10282
scenario.VPA[159].linearMobility.x = 8586
scenario.VPA[159].linearMobility.y = 9327
scenario.VPA[160].linearMobility.x = 8865
scenario.VPA[160].linearMobility.y = 8648
scenario.VPA[161].linearMobility.x = 8379
scenario.VPA[161].linearMobility.y = 7242
scenario.VPA[162].linearMobility.x = 8268
scenario.VPA[162].linearMobility.y = 6208
scenario.VPA[163].linearMobility.x = 8261
scenario.VPA[163].linearMobility.y = 5363
scenario.VPA[164].linearMobility.x = 8766
scenario.VPA[164].linearMobility.y = 4373
scenario.VPA[165].linearMobility.x = 9488
scenario.VPA[165].linearMobility.y = 36197
scenario.VPA[166].linearMobility.x = 9646
scenario.VPA[166].linearMobility.y = 35339
scenario.VPA[167].linearMobility.x = 9596
scenario.VPA[167].linearMobility.y = 34634
scenario.VPA[168].linearMobility.x = 9182
scenario.VPA[168].linearMobility.y = 33218
scenario.VPA[169].linearMobility.x = 9438
scenario.VPA[169].linearMobility.y = 32469
scenario.VPA[170].linearMobility.x = 9409
scenario.VPA[170].linearMobility.y = 31409
scenario.VPA[171].linearMobility.x = 9453
scenario.VPA[171].linearMobility.y = 30299
scenario.VPA[172].linearMobility.x = 9320
scenario.VPA[172].linearMobility.y = 29323
scenario.VPA[173].linearMobility.x = 9473
scenario.VPA[173].linearMobility.y = 28425
scenario.VPA[174].linearMobility.x = 9148
scenario.VPA[174].linearMobility.y = 27641
scenario.VPA[175].linearMobility.x = 9512
scenario.VPA[175].linearMobility.y = 26580
scenario.VPA[176].linearMobility.x = 9246
scenario.VPA[176].linearMobility.y = 25629
scenario.VPA[177].linearMobility.x = 9552
scenario.VPA[177].linearMobility.y = 24761
scenario.VPA[178].linearMobility.x = 9527
scenario.VPA[178].linearMobility.y = 23282
scenario.VPA[179].linearMobility.x = 9813
scenario.VPA[179].linearMobility.y = 22335
scenario.VPA[180].linearMobility.x = 9483
scenario.VPA[180].linearMobility.y = 21664
scenario.VPA[181].linearMobility.x = 9389
scenario.VPA[181].linearMobility.y = 20106
scenario.VPA[182].linearMobility.x = 9448
scenario.VPA[182].linearMobility.y = 19706
scenario.VPA[183].linearMobility.x = 9636
scenario.VPA[183].linearMobility.y = 18853
scenario.VPA[184].linearMobility.x = 9389
scenario.VPA[184].linearMobility.y = 17462
scenario.VPA[185].linearMobility.x = 9936
scenario.VPA[185].linearMobility.y = 16055
scenario.VPA[186].linearMobility.x = 9560
scenario.VPA[186].linearMobility.y = 15760
scenario.VPA[187].linearMobility.x = 9068
scenario.VPA[187].linearMobility.y = 14331
scenario.VPA[188].linearMobility.x = 9470
scenario.VPA[188].linearMobility.y = 13460
scenario.VPA[189].linearMobility.x = 9466
scenario.VPA[189].linearMobility.y = 12400
scenario.VPA[190].linearMobility.x = 9289
scenario.VPA[190].linearMobility.y = 11726
scenario.VPA[191].linearMobility.x = 9616
scenario.VPA[191].linearMobility.y = 10271
scenario.VPA[192].linearMobility.x = 9347
scenario.VPA[192].linearMobility.y = 9244
scenario.VPA[193].linearMobility.x = 9450
scenario.VPA[193].linearMobility.y = 8824
scenario.VPA[194].linearMobility.x = 9505
scenario.VPA[194].linearMobility.y = 7831
scenario.VPA[195].linearMobility.x = 9730
scenario.VPA[195].linearMobility.y = 6551
scenario.VPA[196].linearMobility.x = 9749
scenario.VPA[196].linearMobility.y = 5227
scenario.VPA[197].linearMobility.x = 9553
scenario.VPA[197].linearMobility.y = 4449
scenario.VPA[198].linearMobility.x = 10620
scenario.VPA[198].linearMobility.y = 36298
scenario.VPA[199].linearMobility.x = 10767
scenario.VPA[199].linearMobility.y = 35207
scenario.VPA[200].linearMobility.x = 10829
scenario.VPA[200].linearMobility.y = 34727
scenario.VPA[201].linearMobility.x = 10659
scenario.VPA[201].linearMobility.y = 33670
scenario.VPA[202].linearMobility.x = 10524
scenario.VPA[202].linearMobility.y = 32314
scenario.VPA[203].linearMobility.x = 10326
scenario.VPA[203].linearMobility.y = 31416
scenario.VPA[204].linearMobility.x = 10377
scenario.VPA[204].linearMobility.y = 30071
scenario.VPA[205].linearMobility.x = 10405
scenario.VPA[205].linearMobility.y = 29506
scenario.VPA[206].linearMobility.x = 10399
scenario.VPA[206].linearMobility.y = 28262
scenario.VPA[207].linearMobility.x = 10620
scenario.VPA[207].linearMobility.y = 27358
scenario.VPA[208].linearMobility.x = 10366
scenario.VPA[208].linearMobility.y = 26482
scenario.VPA[209].linearMobility.x = 10789
scenario.VPA[209].linearMobility.y = 25279
scenario.VPA[210].linearMobility.x = 10755
scenario.VPA[210].linearMobility.y = 24781
scenario.VPA[211].linearMobility.x = 10298
scenario.VPA[211].linearMobility.y = 23318
scenario.VPA[212].linearMobility.x = 10202
scenario.VPA[212].linearMobility.y = 22753
scenario.VPA[213].linearMobility.x = 10405
scenario.VPA[213].linearMobility.y = 21334
scenario.VPA[214].linearMobility.x = 10580
scenario.VPA[214].linearMobility.y = 20357
scenario.VPA[215].linearMobility.x = 10812
scenario.VPA[215].linearMobility.y = 19842
scenario.VPA[216].linearMobility.x = 10614
scenario.VPA[216].linearMobility.y = 18215
scenario.VPA[217].linearMobility.x = 10309
scenario.VPA[217].linearMobility.y = 17057
scenario.VPA[218].linearMobility.x = 10761
scenario.VPA[218].linearMobility.y = 16390
scenario.VPA[219].linearMobility.x = 10445
scenario.VPA[219].linearMobility.y = 15277
scenario.VPA[220].linearMobility.x = 10744
scenario.VPA[220].linearMobility.y = 14192
scenario.VPA[221].linearMobility.x = 10880
scenario.VPA[221].linearMobility.y = 13773
scenario.VPA[222].linearMobility.x = 10507
scenario.VPA[222].linearMobility.y = 12621
scenario.VPA[223].linearMobility.x = 10341
scenario.VPA[223].linearMobility.y = 11754
scenario.VPA[224].linearMobility.x = 10677
scenario.VPA[224].linearMobility.y = 10134
scenario.VPA[225].linearMobility.x = 10337
scenario.VPA[225].linearMobility.y = 9756
scenario.VPA[226].linearMobility.x = 10828
scenario.VPA[226].linearMobility.y = 8441
scenario.VPA[227].linearMobility.x = 10744
scenario.VPA[227].linearMobility.y = 7241
scenario.VPA[228].linearMobility.x = 10541
scenario.VPA[228].linearMobility.y = 6292
scenario.VPA[229].linearMobility.x = 10829
scenario.VPA[229].linearMobility.y = 5467
scenario.VPA[230].linearMobility.x = 10128
scenario.VPA[230].linearMobility.y = 4467
scenario.VPA[231].linearMobility.x = 11319
scenario.VPA[231].linearMobility.y = 36223
scenario.VPA[232].linearMobility.x = 11174
scenario.VPA[232].linearMobility.y = 35091
scenario.VPA[233].linearMobility.x = 11268
scenario.VPA[233].linearMobility.y = 34670
scenario.VPA[234].linearMobility.x = 11251
scenario.VPA[234].linearMobility.y = 33671
scenario.VPA[235].linearMobility.x = 11329
scenario.VPA[235].linearMobility.y = 32767
scenario.VPA[236].linearMobility.x = 11199
scenario.VPA[236].linearMobility.y = 31759
scenario.VPA[237].linearMobility.x = 11501
scenario.VPA[237].linearMobility.y = 30571
scenario.VPA[238].linearMobility.x = 11647
scenario.VPA[238].linearMobility.y = 29313
scenario.VPA[239].linearMobility.x = 11501
scenario.VPA[239].linearMobility.y = 28331
scenario.VPA[240].linearMobility.x = 11622
scenario.VPA[240].linearMobility.y = 27418
scenario.VPA[241].linearMobility.x = 11619
scenario.VPA[241].linearMobility.y = 26331
scenario.VPA[242].linearMobility.x = 11389
scenario.VPA[242].linearMobility.y = 25300
scenario.VPA[243].linearMobility.x = 11544
scenario.VPA[243].linearMobility.y = 24602
scenario.VPA[244].linearMobility.x = 11475
scenario.VPA[244].linearMobility.y = 23396
scenario.VPA[245].linearMobility.x = 11636
scenario.VPA[245].linearMobility.y = 22449
scenario.VPA[246].linearMobility.x = 11751
scenario.VPA[246].linearMobility.y = 21243
scenario.VPA[247].linearMobility.x = 11355
scenario.VPA[247].linearMobility.y = 20602
scenario.VPA[248].linearMobility.x = 11845
scenario.VPA[248].linearMobility.y = 19073
scenario.VPA[249].linearMobility.x = 11682
scenario.VPA[249].linearMobility.y = 18409
scenario.VPA[250].linearMobility.x = 11355
scenario.VPA[250].linearMobility.y = 17169
scenario.VPA[251].linearMobility.x = 11062
scenario.VPA[251].linearMobility.y = 16704
scenario.VPA[252].linearMobility.x = 11475
scenario.VPA[252].linearMobility.y = 15412
scenario.VPA[253].linearMobility.x = 11518
scenario.VPA[253].linearMobility.y = 14318
scenario.VPA[254].linearMobility.x = 11492
scenario.VPA[254].linearMobility.y = 13552
scenario.VPA[255].linearMobility.x = 11346
scenario.VPA[255].linearMobility.y = 12466
scenario.VPA[256].linearMobility.x = 11699
scenario.VPA[256].linearMobility.y = 11631
scenario.VPA[257].linearMobility.x = 11432
scenario.VPA[257].linearMobility.y = 10218
scenario.VPA[258].linearMobility.x = 11303
scenario.VPA[258].linearMobility.y = 9254
scenario.VPA[259].linearMobility.x = 11118
scenario.VPA[259].linearMobility.y = 8368
scenario.VPA[260].linearMobility.x = 11165
scenario.VPA[260].linearMobility.y = 7454
scenario.VPA[261].linearMobility.x = 11441
scenario.VPA[261].linearMobility.y = 6369
scenario.VPA[262].linearMobility.x = 11570
scenario.VPA[262].linearMobility.y = 5412
scenario.VPA[263].linearMobility.x = 11604
scenario.VPA[263].linearMobility.y = 4646
scenario.VPA[264].linearMobility.x = 12526
scenario.VPA[264].linearMobility.y = 36287
scenario.VPA[265].linearMobility.x = 12703
scenario.VPA[265].linearMobility.y = 35429
scenario.VPA[266].linearMobility.x = 12511
scenario.VPA[266].linearMobility.y = 34741
scenario.VPA[267].linearMobility.x = 12366
scenario.VPA[267].linearMobility.y = 33401
scenario.VPA[268].linearMobility.x = 12837
scenario.VPA[268].linearMobility.y = 32435
scenario.VPA[269].linearMobility.x = 12294
scenario.VPA[269].linearMobility.y = 31433
scenario.VPA[270].linearMobility.x = 12282
scenario.VPA[270].linearMobility.y = 30111
scenario.VPA[271].linearMobility.x = 12885
scenario.VPA[271].linearMobility.y = 28994
scenario.VPA[272].linearMobility.x = 12759
scenario.VPA[272].linearMobility.y = 28293