<?xml version="1.0"?>

<!-- 
THIS IS THE PRESENT VEHICLES IN THE DEFAULT SCENARIO OF 2hrs 
THE CARS THAT ARRIVED AND THE CARS THAT DID NOT 
ADDED NOTE: Im using a 2 part of the original file because the simulation
is too heavy and memory problems arise 
-->

<routes xmlns:xsi="http://www.w3.org/2001/XMLSchema-instance" xsi:noNamespaceSchemaLocation="http://sumo.sf.net/xsd/routes_file.xsd">

     <vehicle id="106741"  depart="0.00">
        <route edges="-22873505 -22873504#1 10318490#1 23568443#0 23568443#1 32902722 38145051 4534449#0 27115018#3-AddedOnRampEdge 27115018#3 27115018#4 27115018#5 37873574#0-AddedOnRampEdge 37873574#0 37873574#1 37873574#2 -10499088#4 -10499088#3 -10499088#2 -10499088#1 -10499088#0 -63566383 -63530469#1 -63530469#0 37276383 32308866#0 32308866#1 4534408 37746015#0 4531783 26658782#0 26658782#1 26658782#2 9621535 8035202#0 8035202#1 38501996#0 38501996#1 38501996#2 20340980 8076876 38501995 5170004#0 5170004#1 5170004#2 52584031 4242521#1 22587825 22587847#0 22587847#0-AddedOffRampEdge 29427948 5170428#2 5170428#3"/>
 </vehicle>

</routes>
