[General]
cmdenv-express-mode = true
cmdenv-autoflush = true
cmdenv-status-frequency = 10000000s

tkenv-default-config = General
#tkenv-default-run = 1
tkenv-image-path = bitmaps
ned-path = ../../src/base;../../src/modules;../../examples;
network = scenario

##########################################################
#			Simulation parameters                        #
##########################################################
debug-on-errors = true
print-undisposed = false
sim-time-limit = 7200s

record-eventlog = true #this to record a log file
**.udpapp.*.vector-recording = false #true
**.vector-recording = false #true
**.scalar-recording = false 
**.debug = true
**.coreDebug = false #false

#Defining by defaul the Cologne scenario
*.playgroundSizeX = 35000m	
*.playgroundSizeY = 40000m
*.playgroundSizeZ = 10000m

##########################################################
#			WorldUtility parameters                      #
##########################################################
*.world.useTorus = false #false
*.world.use2D = false #true #ok, I've changed this in order to use a 3D environment.

##########################################################
#			TraCIScenarioManager parameters              #
##########################################################
*.manager.updateInterval = 1s
*.manager.host = "localhost"
*.manager.port = 9999
#*.manager.moduleType = "org.mixim.examples.traci_launchd.Car"
*.manager.moduleType = "org.mixim.examples.traci_launchd.CarMac80211"
*.manager.moduleName = "node"
*.manager.moduleDisplayString = ""
*.manager.autoShutdown = true
*.manager.margin = 0
#*.manager.launchConfig = xmldoc("petite.launch.xml") #My own SUMO files
*.manager.launchConfig = xmldoc("cologne.launch.xml") #My own SUMO files


################channel parameters####################
**.connectionManager.carrierFrequency = 2.4e+9Hz  # [Hz]
# max transmission power [mW]
**.connectionManager.pMax = 110.11mW  # [mW]
# signal attenuation threshold [dBm]
**.connectionManager.sat = -120dBm  # [dBm]
# path loss coefficient alpha
**.connectionManager.alpha = 4
**.connectionManager.sendDirect = false

##############################################################################
#       Parameters for the Mac Layer     802.11                                    #
##############################################################################
# debug switch
**.mac.headerLength = 272 bit
**.mac.queueLength = 14
**.mac.bitrate = 2E+6bps# in bits/second
**.mac.autoBitrate = false
### values if no fading is modelled, gives at most 1% packet error rate
**.mac.snr2Mbit = 1.46dB  # [dB]
**.mac.snr5Mbit = 2.6dB  # [dB]
**.mac.snr11Mbit = 5.68dB  # [dB]
**.mac.rtsCtsThreshold = 400
**.mac.neighborhoodCacheSize = 30
**.mac.neighborhoodCacheMaxAge = 100s  # [s]
**.mac.txPower = 110.11mW  # [mW]

##############################################################################
#       Parameters for the Phy   Mac80211                                            #
##############################################################################
**.phy.thermalNoise = -110dBm  # [dBm]
**.phy.analogueModels = xmldoc("configMac80211.xml") #Ok, I'm using the config.xml of example Mac80211
#**.phy.decider = xmldoc("config.xml") #Default Value
**.phy.decider = xmldoc("Nic80211_Decider.xml") # And I renamed with more intuitive name.
**.phy.sensitivity = -119.5dBm  # [dBm]
**.phy.maxTXPower = 110.11mW
**.phy.initialRadioState = 0
**.phy.useThermalNoise = true
**.phy.usePropagationDelay = true #false #adding this to see what happens..


##### NETW layer parameters
**.netwType = "BaseNetwLayer"
**.net.debug = false
**.net.stats = false
**.net.headerLength = 32bit

##### VPA APPS  & mobility
scenario.VPA[*].applType = "VPA" #My new version of VPA
scenario.VPA[*].appl.headerLength = 32bit
*.VPA[*].mobilityType = "ConstSpeedMobility"
*.VPA[*].Mobility.speed = 0
*.VPA[*].Mobility.updateInterval = 0.1s
*.VPA[*].Mobility.coreDebug = false #true
*.VPA[*].Mobility.z = 1.895 #NOTE  peut-etre sera bien de elever la taille du VPA à la d'un tour de communications
#scenario.VPA[*].appl.coreDebug = true # do not works
### Data for APPS_CW. 
scenario.VPA[*].appl.timeT = 5s#passing value of time T for VPAs.

##### VEHICLES' APPS & Mobility Type.
*.node[*].applType = "VEHICLE" #Hey! my new version of Vehicle.
*.node[*].appl.debug = false
*.node[*].appl.epicenterValue= 20#passing value of epicenter junction.
*.node[*].mobilityType = "TraCIMobility"
*.node[*].mobility.debug = false
*.node[*].mobility.speed = 1mps
*.node[*].mobility.updateInterval = 0.1s
###Data for APPS fixing the MAP.
*.node[*].appl.offsetX = 4000 # extra value for X axis
*.node[*].appl.offsetY = 5000 # extra value for Y axis
*.node[*].appl.maxY = 41947 #Tama#o Max. Y axis
### Data for APPS_CW. 
*.node[*].appl.timeT= 1#passing value of time T for VEhicles.
*.node[*].appl.appCW = true #use or not APPS_CW
*.node[*].appl.appMinCW = 10 #This is my APP CW window


################ Mobility parameters #####################
#It seems that I need these values by default, otherwise the TKENV keeps asking me these values.
*.node[*].mobility.x = 0
*.node[*].mobility.y = 0
*.node[*].mobility.z = 1.895 # vamos viendo si funciona con este valor

###############################
#Mobility Parameters: ROAD SIDE UNITS.....(VPA)
###############################

scenario.numNodes = 957

scenario.VPA[0].Mobility.x = 4663
scenario.VPA[0].Mobility.y = 36194
scenario.VPA[1].Mobility.x = 4468
scenario.VPA[1].Mobility.y = 35403
scenario.VPA[2].Mobility.x = 4554
scenario.VPA[2].Mobility.y = 34612
scenario.VPA[3].Mobility.x = 4343
scenario.VPA[3].Mobility.y = 33217
scenario.VPA[4].Mobility.x = 4538
scenario.VPA[4].Mobility.y = 32342
scenario.VPA[5].Mobility.x = 4557
scenario.VPA[5].Mobility.y = 31237
scenario.VPA[6].Mobility.x = 4414
scenario.VPA[6].Mobility.y = 30424
scenario.VPA[7].Mobility.x = 4568
scenario.VPA[7].Mobility.y = 29330
scenario.VPA[8].Mobility.x = 4793
scenario.VPA[8].Mobility.y = 28379
scenario.VPA[9].Mobility.x = 4554
scenario.VPA[9].Mobility.y = 27242
scenario.VPA[10].Mobility.x = 4444
scenario.VPA[10].Mobility.y = 26348
scenario.VPA[11].Mobility.x = 4611
scenario.VPA[11].Mobility.y = 25558
scenario.VPA[12].Mobility.x = 4696
scenario.VPA[12].Mobility.y = 24489
scenario.VPA[13].Mobility.x = 4591
scenario.VPA[13].Mobility.y = 23361
scenario.VPA[14].Mobility.x = 4545
scenario.VPA[14].Mobility.y = 22450
scenario.VPA[15].Mobility.x = 4640
scenario.VPA[15].Mobility.y = 21315
scenario.VPA[16].Mobility.x = 4457
scenario.VPA[16].Mobility.y = 20620
scenario.VPA[17].Mobility.x = 4139
scenario.VPA[17].Mobility.y = 19417
scenario.VPA[18].Mobility.x = 4663
scenario.VPA[18].Mobility.y = 18374
scenario.VPA[19].Mobility.x = 4785
scenario.VPA[19].Mobility.y = 17584
scenario.VPA[20].Mobility.x = 4696
scenario.VPA[20].Mobility.y = 16381
scenario.VPA[21].Mobility.x = 4847
scenario.VPA[21].Mobility.y = 15653
scenario.VPA[22].Mobility.x = 4726
scenario.VPA[22].Mobility.y = 14476
scenario.VPA[23].Mobility.x = 4801
scenario.VPA[23].Mobility.y = 13420
scenario.VPA[24].Mobility.x = 4749
scenario.VPA[24].Mobility.y = 12676
scenario.VPA[25].Mobility.x = 4772
scenario.VPA[25].Mobility.y = 11135
scenario.VPA[26].Mobility.x = 4408
scenario.VPA[26].Mobility.y = 10410
scenario.VPA[27].Mobility.x = 4940
scenario.VPA[27].Mobility.y = 9374
scenario.VPA[28].Mobility.x = 4719
scenario.VPA[28].Mobility.y = 8230
scenario.VPA[29].Mobility.x = 4814
scenario.VPA[29].Mobility.y = 7443
scenario.VPA[30].Mobility.x = 4959
scenario.VPA[30].Mobility.y = 6502
scenario.VPA[31].Mobility.x = 4820
scenario.VPA[31].Mobility.y = 4986
scenario.VPA[32].Mobility.x = 4529
scenario.VPA[32].Mobility.y = 4697
scenario.VPA[33].Mobility.x = 5331
scenario.VPA[33].Mobility.y = 36061
scenario.VPA[34].Mobility.x = 5596
scenario.VPA[34].Mobility.y = 35336
scenario.VPA[35].Mobility.x = 5246
scenario.VPA[35].Mobility.y = 34498
scenario.VPA[36].Mobility.x = 5274
scenario.VPA[36].Mobility.y = 33721
scenario.VPA[37].Mobility.x = 5092
scenario.VPA[37].Mobility.y = 32043
scenario.VPA[38].Mobility.x = 5696
scenario.VPA[38].Mobility.y = 31449
scenario.VPA[39].Mobility.x = 5288
scenario.VPA[39].Mobility.y = 30252
scenario.VPA[40].Mobility.x = 5617
scenario.VPA[40].Mobility.y = 29441
scenario.VPA[41].Mobility.x = 5381
scenario.VPA[41].Mobility.y = 28608
scenario.VPA[42].Mobility.x = 5489
scenario.VPA[42].Mobility.y = 27429
scenario.VPA[43].Mobility.x = 5421
scenario.VPA[43].Mobility.y = 26243
scenario.VPA[44].Mobility.x = 5238
scenario.VPA[44].Mobility.y = 25482
scenario.VPA[45].Mobility.x = 5814
scenario.VPA[45].Mobility.y = 24106
scenario.VPA[46].Mobility.x = 5485
scenario.VPA[46].Mobility.y = 23377
scenario.VPA[47].Mobility.x = 5242
scenario.VPA[47].Mobility.y = 22602
scenario.VPA[48].Mobility.x = 5592
scenario.VPA[48].Mobility.y = 21505
scenario.VPA[49].Mobility.x = 5306
scenario.VPA[49].Mobility.y = 20337
scenario.VPA[50].Mobility.x = 5506
scenario.VPA[50].Mobility.y = 19486
scenario.VPA[51].Mobility.x = 5589
scenario.VPA[51].Mobility.y = 18361
scenario.VPA[52].Mobility.x = 5474
scenario.VPA[52].Mobility.y = 17367
scenario.VPA[53].Mobility.x = 5317
scenario.VPA[53].Mobility.y = 16396
scenario.VPA[54].Mobility.x = 5342
scenario.VPA[54].Mobility.y = 15467
scenario.VPA[55].Mobility.x = 5299
scenario.VPA[55].Mobility.y = 14677
scenario.VPA[56].Mobility.x = 5610
scenario.VPA[56].Mobility.y = 13623
scenario.VPA[57].Mobility.x = 5406
scenario.VPA[57].Mobility.y = 12558
scenario.VPA[58].Mobility.x = 5617
scenario.VPA[58].Mobility.y = 11297
scenario.VPA[59].Mobility.x = 5467
scenario.VPA[59].Mobility.y = 10515
scenario.VPA[60].Mobility.x = 5517
scenario.VPA[60].Mobility.y = 9225
scenario.VPA[61].Mobility.x = 5267
scenario.VPA[61].Mobility.y = 8646
scenario.VPA[62].Mobility.x = 5692
scenario.VPA[62].Mobility.y = 7528
scenario.VPA[63].Mobility.x = 5621
scenario.VPA[63].Mobility.y = 6670
scenario.VPA[64].Mobility.x = 5814
scenario.VPA[64].Mobility.y = 5605
scenario.VPA[65].Mobility.x = 5360
scenario.VPA[65].Mobility.y = 4819
scenario.VPA[66].Mobility.x = 6625
scenario.VPA[66].Mobility.y = 36050
scenario.VPA[67].Mobility.x = 6706
scenario.VPA[67].Mobility.y = 35578
scenario.VPA[68].Mobility.x = 6218
scenario.VPA[68].Mobility.y = 34339
scenario.VPA[69].Mobility.x = 6325
scenario.VPA[69].Mobility.y = 33864
scenario.VPA[70].Mobility.x = 6773
scenario.VPA[70].Mobility.y = 32201
scenario.VPA[71].Mobility.x = 6353
scenario.VPA[71].Mobility.y = 31669
scenario.VPA[72].Mobility.x = 6448
scenario.VPA[72].Mobility.y = 30690
scenario.VPA[73].Mobility.x = 6163
scenario.VPA[73].Mobility.y = 29146
scenario.VPA[74].Mobility.x = 6554
scenario.VPA[74].Mobility.y = 28320
scenario.VPA[75].Mobility.x = 6560
scenario.VPA[75].Mobility.y = 27760
scenario.VPA[76].Mobility.x = 6534
scenario.VPA[76].Mobility.y = 26395
scenario.VPA[77].Mobility.x = 6857
scenario.VPA[77].Mobility.y = 25703
scenario.VPA[78].Mobility.x = 6286
scenario.VPA[78].Mobility.y = 24652
scenario.VPA[79].Mobility.x = 6308
scenario.VPA[79].Mobility.y = 23131
scenario.VPA[80].Mobility.x = 6551
scenario.VPA[80].Mobility.y = 22200
scenario.VPA[81].Mobility.x = 6564
scenario.VPA[81].Mobility.y = 21040
scenario.VPA[82].Mobility.x = 6687
scenario.VPA[82].Mobility.y = 20547
scenario.VPA[83].Mobility.x = 6493
scenario.VPA[83].Mobility.y = 19584
scenario.VPA[84].Mobility.x = 6482
scenario.VPA[84].Mobility.y = 18198
scenario.VPA[85].Mobility.x = 6689
scenario.VPA[85].Mobility.y = 17644
scenario.VPA[86].Mobility.x = 6258
scenario.VPA[86].Mobility.y = 16295
scenario.VPA[87].Mobility.x = 6689
scenario.VPA[87].Mobility.y = 15427
scenario.VPA[88].Mobility.x = 6812
scenario.VPA[88].Mobility.y = 14091
scenario.VPA[89].Mobility.x = 6478
scenario.VPA[89].Mobility.y = 13843
scenario.VPA[90].Mobility.x = 6556
scenario.VPA[90].Mobility.y = 12703
scenario.VPA[91].Mobility.x = 6726
scenario.VPA[91].Mobility.y = 11113
scenario.VPA[92].Mobility.x = 6648
scenario.VPA[92].Mobility.y = 10047
scenario.VPA[93].Mobility.x = 6230
scenario.VPA[93].Mobility.y = 9424
scenario.VPA[94].Mobility.x = 6142
scenario.VPA[94].Mobility.y = 8624
scenario.VPA[95].Mobility.x = 6433
scenario.VPA[95].Mobility.y = 7575
scenario.VPA[96].Mobility.x = 6721
scenario.VPA[96].Mobility.y = 6388
scenario.VPA[97].Mobility.x = 6499
scenario.VPA[97].Mobility.y = 5440
scenario.VPA[98].Mobility.x = 6581
scenario.VPA[98].Mobility.y = 4569
scenario.VPA[99].Mobility.x = 7828
scenario.VPA[99].Mobility.y = 36295
scenario.VPA[100].Mobility.x = 7652
scenario.VPA[100].Mobility.y = 35203
scenario.VPA[101].Mobility.x = 7710
scenario.VPA[101].Mobility.y = 34688
scenario.VPA[102].Mobility.x = 7224
scenario.VPA[102].Mobility.y = 33275
scenario.VPA[103].Mobility.x = 7633
scenario.VPA[103].Mobility.y = 32312
scenario.VPA[104].Mobility.x = 7462
scenario.VPA[104].Mobility.y = 31398
scenario.VPA[105].Mobility.x = 7250
scenario.VPA[105].Mobility.y = 29999
scenario.VPA[106].Mobility.x = 7485
scenario.VPA[106].Mobility.y = 29556
scenario.VPA[107].Mobility.x = 7207
scenario.VPA[107].Mobility.y = 28726
scenario.VPA[108].Mobility.x = 7283
scenario.VPA[108].Mobility.y = 27310
scenario.VPA[109].Mobility.x = 7660
scenario.VPA[109].Mobility.y = 26107
scenario.VPA[110].Mobility.x = 7437
scenario.VPA[110].Mobility.y = 25471
scenario.VPA[111].Mobility.x = 7593
scenario.VPA[111].Mobility.y = 24555
scenario.VPA[112].Mobility.x = 7910
scenario.VPA[112].Mobility.y = 23208
scenario.VPA[113].Mobility.x = 7934
scenario.VPA[113].Mobility.y = 22752
scenario.VPA[114].Mobility.x = 7322
scenario.VPA[114].Mobility.y = 21561
scenario.VPA[115].Mobility.x = 7269
scenario.VPA[115].Mobility.y = 20492
scenario.VPA[116].Mobility.x = 7410
scenario.VPA[116].Mobility.y = 19861
scenario.VPA[117].Mobility.x = 7328
scenario.VPA[117].Mobility.y = 18260
scenario.VPA[118].Mobility.x = 7440
scenario.VPA[118].Mobility.y = 17375
scenario.VPA[119].Mobility.x = 7246
scenario.VPA[119].Mobility.y = 16228
scenario.VPA[120].Mobility.x = 7302
scenario.VPA[120].Mobility.y = 15052
scenario.VPA[121].Mobility.x = 7567
scenario.VPA[121].Mobility.y = 14507
scenario.VPA[122].Mobility.x = 7261
scenario.VPA[122].Mobility.y = 13633
scenario.VPA[123].Mobility.x = 7765
scenario.VPA[123].Mobility.y = 12786
scenario.VPA[124].Mobility.x = 7393
scenario.VPA[124].Mobility.y = 11864
scenario.VPA[125].Mobility.x = 7690
scenario.VPA[125].Mobility.y = 10747
scenario.VPA[126].Mobility.x = 7252
scenario.VPA[126].Mobility.y = 9537
scenario.VPA[127].Mobility.x = 7771
scenario.VPA[127].Mobility.y = 8378
scenario.VPA[128].Mobility.x = 7469
scenario.VPA[128].Mobility.y = 7441
scenario.VPA[129].Mobility.x = 7235
scenario.VPA[129].Mobility.y = 6409
scenario.VPA[130].Mobility.x = 7840
scenario.VPA[130].Mobility.y = 5588
scenario.VPA[131].Mobility.x = 7354
scenario.VPA[131].Mobility.y = 4374
scenario.VPA[132].Mobility.x = 8505
scenario.VPA[132].Mobility.y = 35988
scenario.VPA[133].Mobility.x = 8208
scenario.VPA[133].Mobility.y = 35532
scenario.VPA[134].Mobility.x = 8924
scenario.VPA[134].Mobility.y = 34240
scenario.VPA[135].Mobility.x = 8268
scenario.VPA[135].Mobility.y = 33430
scenario.VPA[136].Mobility.x = 8712
scenario.VPA[136].Mobility.y = 32450
scenario.VPA[137].Mobility.x = 8584
scenario.VPA[137].Mobility.y = 31458
scenario.VPA[138].Mobility.x = 8817
scenario.VPA[138].Mobility.y = 30391
scenario.VPA[139].Mobility.x = 8839
scenario.VPA[139].Mobility.y = 29311
scenario.VPA[140].Mobility.x = 8419
scenario.VPA[140].Mobility.y = 28795
scenario.VPA[141].Mobility.x = 8243
scenario.VPA[141].Mobility.y = 27606
scenario.VPA[142].Mobility.x = 8648
scenario.VPA[142].Mobility.y = 26156
scenario.VPA[143].Mobility.x = 8478
scenario.VPA[143].Mobility.y = 25172
scenario.VPA[144].Mobility.x = 8365
scenario.VPA[144].Mobility.y = 24315
scenario.VPA[145].Mobility.x = 8737
scenario.VPA[145].Mobility.y = 23237
scenario.VPA[146].Mobility.x = 8338
scenario.VPA[146].Mobility.y = 22223
scenario.VPA[147].Mobility.x = 8090
scenario.VPA[147].Mobility.y = 21716
scenario.VPA[148].Mobility.x = 8182
scenario.VPA[148].Mobility.y = 20741
scenario.VPA[149].Mobility.x = 8144
scenario.VPA[149].Mobility.y = 19727
scenario.VPA[150].Mobility.x = 8171
scenario.VPA[150].Mobility.y = 18773
scenario.VPA[151].Mobility.x = 8845
scenario.VPA[151].Mobility.y = 17786
scenario.VPA[152].Mobility.x = 8365
scenario.VPA[152].Mobility.y = 16234
scenario.VPA[153].Mobility.x = 8656
scenario.VPA[153].Mobility.y = 15269
scenario.VPA[154].Mobility.x = 8365
scenario.VPA[154].Mobility.y = 14719
scenario.VPA[155].Mobility.x = 8548
scenario.VPA[155].Mobility.y = 13808
scenario.VPA[156].Mobility.x = 8309
scenario.VPA[156].Mobility.y = 12345
scenario.VPA[157].Mobility.x = 8241
scenario.VPA[157].Mobility.y = 11134
scenario.VPA[158].Mobility.x = 8354
scenario.VPA[158].Mobility.y = 10282
scenario.VPA[159].Mobility.x = 8586
scenario.VPA[159].Mobility.y = 9327
scenario.VPA[160].Mobility.x = 8865
scenario.VPA[160].Mobility.y = 8648
scenario.VPA[161].Mobility.x = 8379
scenario.VPA[161].Mobility.y = 7242
scenario.VPA[162].Mobility.x = 8268
scenario.VPA[162].Mobility.y = 6208
scenario.VPA[163].Mobility.x = 8261
scenario.VPA[163].Mobility.y = 5363
scenario.VPA[164].Mobility.x = 8766
scenario.VPA[164].Mobility.y = 4373
scenario.VPA[165].Mobility.x = 9488
scenario.VPA[165].Mobility.y = 36197
scenario.VPA[166].Mobility.x = 9646
scenario.VPA[166].Mobility.y = 35339
scenario.VPA[167].Mobility.x = 9596
scenario.VPA[167].Mobility.y = 34634
scenario.VPA[168].Mobility.x = 9182
scenario.VPA[168].Mobility.y = 33218
scenario.VPA[169].Mobility.x = 9438
scenario.VPA[169].Mobility.y = 32469
scenario.VPA[170].Mobility.x = 9409
scenario.VPA[170].Mobility.y = 31409
scenario.VPA[171].Mobility.x = 9453
scenario.VPA[171].Mobility.y = 30299
scenario.VPA[172].Mobility.x = 9320
scenario.VPA[172].Mobility.y = 29323
scenario.VPA[173].Mobility.x = 9473
scenario.VPA[173].Mobility.y = 28425
scenario.VPA[174].Mobility.x = 9148
scenario.VPA[174].Mobility.y = 27641
scenario.VPA[175].Mobility.x = 9512
scenario.VPA[175].Mobility.y = 26580
scenario.VPA[176].Mobility.x = 9246
scenario.VPA[176].Mobility.y = 25629
scenario.VPA[177].Mobility.x = 9552
scenario.VPA[177].Mobility.y = 24761
scenario.VPA[178].Mobility.x = 9527
scenario.VPA[178].Mobility.y = 23282
scenario.VPA[179].Mobility.x = 9813
scenario.VPA[179].Mobility.y = 22335
scenario.VPA[180].Mobility.x = 9483
scenario.VPA[180].Mobility.y = 21664
scenario.VPA[181].Mobility.x = 9389
scenario.VPA[181].Mobility.y = 20106
scenario.VPA[182].Mobility.x = 9448
scenario.VPA[182].Mobility.y = 19706
scenario.VPA[183].Mobility.x = 9636
scenario.VPA[183].Mobility.y = 18853
scenario.VPA[184].Mobility.x = 9389
scenario.VPA[184].Mobility.y = 17462
scenario.VPA[185].Mobility.x = 9936
scenario.VPA[185].Mobility.y = 16055
scenario.VPA[186].Mobility.x = 9560
scenario.VPA[186].Mobility.y = 15760
scenario.VPA[187].Mobility.x = 9068
scenario.VPA[187].Mobility.y = 14331
scenario.VPA[188].Mobility.x = 9470
scenario.VPA[188].Mobility.y = 13460
scenario.VPA[189].Mobility.x = 9466
scenario.VPA[189].Mobility.y = 12400
scenario.VPA[190].Mobility.x = 9289
scenario.VPA[190].Mobility.y = 11726
scenario.VPA[191].Mobility.x = 9616
scenario.VPA[191].Mobility.y = 10271
scenario.VPA[192].Mobility.x = 9347
scenario.VPA[192].Mobility.y = 9244
scenario.VPA[193].Mobility.x = 9450
scenario.VPA[193].Mobility.y = 8824
scenario.VPA[194].Mobility.x = 9505
scenario.VPA[194].Mobility.y = 7831
scenario.VPA[195].Mobility.x = 9730
scenario.VPA[195].Mobility.y = 6551
scenario.VPA[196].Mobility.x = 9749
scenario.VPA[196].Mobility.y = 5227
scenario.VPA[197].Mobility.x = 9553
scenario.VPA[197].Mobility.y = 4449
scenario.VPA[198].Mobility.x = 10620
scenario.VPA[198].Mobility.y = 36298
scenario.VPA[199].Mobility.x = 10767
scenario.VPA[199].Mobility.y = 35207
scenario.VPA[200].Mobility.x = 10829
scenario.VPA[200].Mobility.y = 34727
scenario.VPA[201].Mobility.x = 10659
scenario.VPA[201].Mobility.y = 33670
scenario.VPA[202].Mobility.x = 10524
scenario.VPA[202].Mobility.y = 32314
scenario.VPA[203].Mobility.x = 10326
scenario.VPA[203].Mobility.y = 31416
scenario.VPA[204].Mobility.x = 10377
scenario.VPA[204].Mobility.y = 30071
scenario.VPA[205].Mobility.x = 10405
scenario.VPA[205].Mobility.y = 29506
scenario.VPA[206].Mobility.x = 10399
scenario.VPA[206].Mobility.y = 28262
scenario.VPA[207].Mobility.x = 10620
scenario.VPA[207].Mobility.y = 27358
scenario.VPA[208].Mobility.x = 10366
scenario.VPA[208].Mobility.y = 26482
scenario.VPA[209].Mobility.x = 10789
scenario.VPA[209].Mobility.y = 25279
scenario.VPA[210].Mobility.x = 10755
scenario.VPA[210].Mobility.y = 24781
scenario.VPA[211].Mobility.x = 10298
scenario.VPA[211].Mobility.y = 23318
scenario.VPA[212].Mobility.x = 10202
scenario.VPA[212].Mobility.y = 22753
scenario.VPA[213].Mobility.x = 10405
scenario.VPA[213].Mobility.y = 21334
scenario.VPA[214].Mobility.x = 10580
scenario.VPA[214].Mobility.y = 20357
scenario.VPA[215].Mobility.x = 10812
scenario.VPA[215].Mobility.y = 19842
scenario.VPA[216].Mobility.x = 10614
scenario.VPA[216].Mobility.y = 18215
scenario.VPA[217].Mobility.x = 10309
scenario.VPA[217].Mobility.y = 17057
scenario.VPA[218].Mobility.x = 10761
scenario.VPA[218].Mobility.y = 16390
scenario.VPA[219].Mobility.x = 10445
scenario.VPA[219].Mobility.y = 15277
scenario.VPA[220].Mobility.x = 10744
scenario.VPA[220].Mobility.y = 14192
scenario.VPA[221].Mobility.x = 10880
scenario.VPA[221].Mobility.y = 13773
scenario.VPA[222].Mobility.x = 10507
scenario.VPA[222].Mobility.y = 12621
scenario.VPA[223].Mobility.x = 10341
scenario.VPA[223].Mobility.y = 11754
scenario.VPA[224].Mobility.x = 10677
scenario.VPA[224].Mobility.y = 10134
scenario.VPA[225].Mobility.x = 10337
scenario.VPA[225].Mobility.y = 9756
scenario.VPA[226].Mobility.x = 10828
scenario.VPA[226].Mobility.y = 8441
scenario.VPA[227].Mobility.x = 10744
scenario.VPA[227].Mobility.y = 7241
scenario.VPA[228].Mobility.x = 10541
scenario.VPA[228].Mobility.y = 6292
scenario.VPA[229].Mobility.x = 10829
scenario.VPA[229].Mobility.y = 5467
scenario.VPA[230].Mobility.x = 10128
scenario.VPA[230].Mobility.y = 4467
scenario.VPA[231].Mobility.x = 11319
scenario.VPA[231].Mobility.y = 36223
scenario.VPA[232].Mobility.x = 11174
scenario.VPA[232].Mobility.y = 35091
scenario.VPA[233].Mobility.x = 11268
scenario.VPA[233].Mobility.y = 34670
scenario.VPA[234].Mobility.x = 11251
scenario.VPA[234].Mobility.y = 33671
scenario.VPA[235].Mobility.x = 11329
scenario.VPA[235].Mobility.y = 32767
scenario.VPA[236].Mobility.x = 11199
scenario.VPA[236].Mobility.y = 31759
scenario.VPA[237].Mobility.x = 11501
scenario.VPA[237].Mobility.y = 30571
scenario.VPA[238].Mobility.x = 11647
scenario.VPA[238].Mobility.y = 29313
scenario.VPA[239].Mobility.x = 11501
scenario.VPA[239].Mobility.y = 28331
scenario.VPA[240].Mobility.x = 11622
scenario.VPA[240].Mobility.y = 27418
scenario.VPA[241].Mobility.x = 11619
scenario.VPA[241].Mobility.y = 26331
scenario.VPA[242].Mobility.x = 11389
scenario.VPA[242].Mobility.y = 25300
scenario.VPA[243].Mobility.x = 11544
scenario.VPA[243].Mobility.y = 24602
scenario.VPA[244].Mobility.x = 11475
scenario.VPA[244].Mobility.y = 23396
scenario.VPA[245].Mobility.x = 11636
scenario.VPA[245].Mobility.y = 22449
scenario.VPA[246].Mobility.x = 11751
scenario.VPA[246].Mobility.y = 21243
scenario.VPA[247].Mobility.x = 11355
scenario.VPA[247].Mobility.y = 20602
scenario.VPA[248].Mobility.x = 11845
scenario.VPA[248].Mobility.y = 19073
scenario.VPA[249].Mobility.x = 11682
scenario.VPA[249].Mobility.y = 18409
scenario.VPA[250].Mobility.x = 11355
scenario.VPA[250].Mobility.y = 17169
scenario.VPA[251].Mobility.x = 11062
scenario.VPA[251].Mobility.y = 16704
scenario.VPA[252].Mobility.x = 11475
scenario.VPA[252].Mobility.y = 15412
scenario.VPA[253].Mobility.x = 11518
scenario.VPA[253].Mobility.y = 14318
scenario.VPA[254].Mobility.x = 11492
scenario.VPA[254].Mobility.y = 13552
scenario.VPA[255].Mobility.x = 11346
scenario.VPA[255].Mobility.y = 12466
scenario.VPA[256].Mobility.x = 11699
scenario.VPA[256].Mobility.y = 11631
scenario.VPA[257].Mobility.x = 11432
scenario.VPA[257].Mobility.y = 10218
scenario.VPA[258].Mobility.x = 11303
scenario.VPA[258].Mobility.y = 9254
scenario.VPA[259].Mobility.x = 11118
scenario.VPA[259].Mobility.y = 8368
scenario.VPA[260].Mobility.x = 11165
scenario.VPA[260].Mobility.y = 7454
scenario.VPA[261].Mobility.x = 11441
scenario.VPA[261].Mobility.y = 6369
scenario.VPA[262].Mobility.x = 11570
scenario.VPA[262].Mobility.y = 5412
scenario.VPA[263].Mobility.x = 11604
scenario.VPA[263].Mobility.y = 4646
scenario.VPA[264].Mobility.x = 12526
scenario.VPA[264].Mobility.y = 36287
scenario.VPA[265].Mobility.x = 12703
scenario.VPA[265].Mobility.y = 35429
scenario.VPA[266].Mobility.x = 12511
scenario.VPA[266].Mobility.y = 34741
scenario.VPA[267].Mobility.x = 12366
scenario.VPA[267].Mobility.y = 33401
scenario.VPA[268].Mobility.x = 12837
scenario.VPA[268].Mobility.y = 32435
scenario.VPA[269].Mobility.x = 12294
scenario.VPA[269].Mobility.y = 31433
scenario.VPA[270].Mobility.x = 12282
scenario.VPA[270].Mobility.y = 30111
scenario.VPA[271].Mobility.x = 12885
scenario.VPA[271].Mobility.y = 28994
scenario.VPA[272].Mobility.x = 12759
scenario.VPA[272].Mobility.y = 28293
scenario.VPA[273].Mobility.x = 12451
scenario.VPA[273].Mobility.y = 27116
scenario.VPA[274].Mobility.x = 12729
scenario.VPA[274].Mobility.y = 26705
scenario.VPA[275].Mobility.x = 12481
scenario.VPA[275].Mobility.y = 25311
scenario.VPA[276].Mobility.x = 12173
scenario.VPA[276].Mobility.y = 24417
scenario.VPA[277].Mobility.x = 12083
scenario.VPA[277].Mobility.y = 23439
scenario.VPA[278].Mobility.x = 12396
scenario.VPA[278].Mobility.y = 22564
scenario.VPA[279].Mobility.x = 12227
scenario.VPA[279].Mobility.y = 21501
scenario.VPA[280].Mobility.x = 12415
scenario.VPA[280].Mobility.y = 20336
scenario.VPA[281].Mobility.x = 12873
scenario.VPA[281].Mobility.y = 19762
scenario.VPA[282].Mobility.x = 12758
scenario.VPA[282].Mobility.y = 18433
scenario.VPA[283].Mobility.x = 12596
scenario.VPA[283].Mobility.y = 17021
scenario.VPA[284].Mobility.x = 12517
scenario.VPA[284].Mobility.y = 16436
scenario.VPA[285].Mobility.x = 12469
scenario.VPA[285].Mobility.y = 15542
scenario.VPA[286].Mobility.x = 12127
scenario.VPA[286].Mobility.y = 14825
scenario.VPA[287].Mobility.x = 12493
scenario.VPA[287].Mobility.y = 13471
scenario.VPA[288].Mobility.x = 12342
scenario.VPA[288].Mobility.y = 12300
scenario.VPA[289].Mobility.x = 12233
scenario.VPA[289].Mobility.y = 11376
scenario.VPA[290].Mobility.x = 12608
scenario.VPA[290].Mobility.y = 10869
scenario.VPA[291].Mobility.x = 12674
scenario.VPA[291].Mobility.y = 9426
scenario.VPA[292].Mobility.x = 12517
scenario.VPA[292].Mobility.y = 8466
scenario.VPA[293].Mobility.x = 12330
scenario.VPA[293].Mobility.y = 7567
scenario.VPA[294].Mobility.x = 12264
scenario.VPA[294].Mobility.y = 6112
scenario.VPA[295].Mobility.x = 12203
scenario.VPA[295].Mobility.y = 5442
scenario.VPA[296].Mobility.x = 12686
scenario.VPA[296].Mobility.y = 4548
scenario.VPA[297].Mobility.x = 13509
scenario.VPA[297].Mobility.y = 36149
scenario.VPA[298].Mobility.x = 13306
scenario.VPA[298].Mobility.y = 35593
scenario.VPA[299].Mobility.x = 13674
scenario.VPA[299].Mobility.y = 34257
scenario.VPA[300].Mobility.x = 13522
scenario.VPA[300].Mobility.y = 33407
scenario.VPA[301].Mobility.x = 13230
scenario.VPA[301].Mobility.y = 32543
scenario.VPA[302].Mobility.x = 13230
scenario.VPA[302].Mobility.y = 31629
scenario.VPA[303].Mobility.x = 13763
scenario.VPA[303].Mobility.y = 30131
scenario.VPA[304].Mobility.x = 13408
scenario.VPA[304].Mobility.y = 29217
scenario.VPA[305].Mobility.x = 13217
scenario.VPA[305].Mobility.y = 28658
scenario.VPA[306].Mobility.x = 13522
scenario.VPA[306].Mobility.y = 27756
scenario.VPA[307].Mobility.x = 13116
scenario.VPA[307].Mobility.y = 26271
scenario.VPA[308].Mobility.x = 13687
scenario.VPA[308].Mobility.y = 25306
scenario.VPA[309].Mobility.x = 13293
scenario.VPA[309].Mobility.y = 24201
scenario.VPA[310].Mobility.x = 13179
scenario.VPA[310].Mobility.y = 23528
scenario.VPA[311].Mobility.x = 13484
scenario.VPA[311].Mobility.y = 22589
scenario.VPA[312].Mobility.x = 13497
scenario.VPA[312].Mobility.y = 21014
scenario.VPA[313].Mobility.x = 13890
scenario.VPA[313].Mobility.y = 20443
scenario.VPA[314].Mobility.x = 13497
scenario.VPA[314].Mobility.y = 19376
scenario.VPA[315].Mobility.x = 13499
scenario.VPA[315].Mobility.y = 18509
scenario.VPA[316].Mobility.x = 13484
scenario.VPA[316].Mobility.y = 17078
scenario.VPA[317].Mobility.x = 13598
scenario.VPA[317].Mobility.y = 16659
scenario.VPA[318].Mobility.x = 13522
scenario.VPA[318].Mobility.y = 15262
scenario.VPA[319].Mobility.x = 13255
scenario.VPA[319].Mobility.y = 14793
scenario.VPA[320].Mobility.x = 13560
scenario.VPA[320].Mobility.y = 13447
scenario.VPA[321].Mobility.x = 13332
scenario.VPA[321].Mobility.y = 12355
scenario.VPA[322].Mobility.x = 13243
scenario.VPA[322].Mobility.y = 11110
scenario.VPA[323].Mobility.x = 13814
scenario.VPA[323].Mobility.y = 10082
scenario.VPA[324].Mobility.x = 13586
scenario.VPA[324].Mobility.y = 9168
scenario.VPA[325].Mobility.x = 13573
scenario.VPA[325].Mobility.y = 8343
scenario.VPA[326].Mobility.x = 13903
scenario.VPA[326].Mobility.y = 7619
scenario.VPA[327].Mobility.x = 13428
scenario.VPA[327].Mobility.y = 6484
scenario.VPA[328].Mobility.x = 13814
scenario.VPA[328].Mobility.y = 5600
scenario.VPA[329].Mobility.x = 13636
scenario.VPA[329].Mobility.y = 4686
scenario.VPA[330].Mobility.x = 14345
scenario.VPA[330].Mobility.y = 36336
scenario.VPA[331].Mobility.x = 14541
scenario.VPA[331].Mobility.y = 35430
scenario.VPA[332].Mobility.x = 14466
scenario.VPA[332].Mobility.y = 34151
scenario.VPA[333].Mobility.x = 14210
scenario.VPA[333].Mobility.y = 33192
scenario.VPA[334].Mobility.x = 14724
scenario.VPA[334].Mobility.y = 32068
scenario.VPA[335].Mobility.x = 14487
scenario.VPA[335].Mobility.y = 31423
scenario.VPA[336].Mobility.x = 14519
scenario.VPA[336].Mobility.y = 30400
scenario.VPA[337].Mobility.x = 14189
scenario.VPA[337].Mobility.y = 29195
scenario.VPA[338].Mobility.x = 14722
scenario.VPA[338].Mobility.y = 28310