[General]
cmdenv-express-mode = true
cmdenv-autoflush = true
cmdenv-status-frequency = 10000000s

tkenv-default-config = General
#tkenv-default-run = 1
tkenv-image-path = bitmaps
ned-path = ../../src/base;../../src/modules;../../examples;
network = scenario

##########################################################
#			Simulation parameters                        #
##########################################################
debug-on-errors = true
print-undisposed = false
sim-time-limit = 7200s

record-eventlog = true #this to record a log file
**.udpapp.*.vector-recording = false #true
**.vector-recording = false #true
**.scalar-recording = false 
**.debug = true
**.coreDebug = false #false

#Defining by defaul the Cologne scenario
*.playgroundSizeX = 35000m	
*.playgroundSizeY = 40000m
*.playgroundSizeZ = 10000m

##########################################################
#			WorldUtility parameters                      #
##########################################################
*.world.useTorus = false #false
*.world.use2D = false #true #ok, I've changed this in order to use a 3D environment.

##########################################################
#			TraCIScenarioManager parameters              #
##########################################################
*.manager.updateInterval = 1s
*.manager.host = "localhost"
*.manager.port = 9999
#*.manager.moduleType = "org.mixim.examples.traci_launchd.Car"
*.manager.moduleType = "org.mixim.examples.traci_launchd.CarMac80211"
*.manager.moduleName = "node"
*.manager.moduleDisplayString = ""
*.manager.autoShutdown = true
*.manager.margin = 0
*.manager.launchConfig = xmldoc("petite.launch.xml") #My own SUMO files

################channel parameters####################
**.connectionManager.carrierFrequency = 2.4e+9Hz  # [Hz]
# max transmission power [mW]
**.connectionManager.pMax = 110.11mW  # [mW]
# signal attenuation threshold [dBm]
**.connectionManager.sat = -120dBm  # [dBm]
# path loss coefficient alpha
**.connectionManager.alpha = 4
**.connectionManager.sendDirect = false

##############################################################################
#       Parameters for the Mac Layer     802.11                                    #
##############################################################################
# debug switch
**.mac.headerLength = 272 bit
**.mac.queueLength = 14
**.mac.bitrate = 2E+6bps# in bits/second
**.mac.autoBitrate = false
### values if no fading is modelled, gives at most 1% packet error rate
**.mac.snr2Mbit = 1.46dB  # [dB]
**.mac.snr5Mbit = 2.6dB  # [dB]
**.mac.snr11Mbit = 5.68dB  # [dB]
**.mac.rtsCtsThreshold = 400
**.mac.neighborhoodCacheSize = 30
**.mac.neighborhoodCacheMaxAge = 100s  # [s]
**.mac.txPower = 110.11mW  # [mW]

##############################################################################
#       Parameters for the Phy   Mac80211                                            #
##############################################################################
**.phy.thermalNoise = -110dBm  # [dBm]
**.phy.analogueModels = xmldoc("configMac80211.xml") #Ok, I'm using the config.xml of example Mac80211
#**.phy.decider = xmldoc("config.xml") #Default Value
**.phy.decider = xmldoc("Nic80211_Decider.xml") # And I renamed with more intuitive name.
**.phy.sensitivity = -119.5dBm  # [dBm]
**.phy.maxTXPower = 110.11mW
**.phy.initialRadioState = 0
**.phy.useThermalNoise = true
**.phy.usePropagationDelay = true #false #adding this to see what happens..


##### NETW layer parameters
**.netwType = "BaseNetwLayer"
**.net.debug = false
**.net.stats = false
**.net.headerLength = 32bit

##### VPA APPS  & mobility
scenario.VPA[*].applType = "VPA" #My new version of VPA
scenario.VPA[*].appl.headerLength = 32bit
*.VPA[*].mobilityType = "ConstSpeedMobility"
*.VPA[*].Mobility.speed = 0
*.VPA[*].Mobility.updateInterval = 0.1s
*.VPA[*].Mobility.coreDebug = false #true
*.VPA[*].Mobility.z = 1.895 #NOTE  peut-etre sera bien de elever la taille du VPA à la d'un tour de communications
#scenario.VPA[*].appl.coreDebug = true # do not works
### Data for APPS_CW. 
scenario.VPA[*].appl.timeT = 5s#passing value of time T for VPAs.

##### VEHICLES' APPS & Mobility Type.
*.node[*].applType = "VEHICLE" #Hey! my new version of Vehicle.
*.node[*].appl.debug = false
*.node[*].appl.epicenterValue= 20#passing value of epicenter junction.
*.node[*].mobilityType = "TraCIMobility"
*.node[*].mobility.debug = false
*.node[*].mobility.speed = 1mps
*.node[*].mobility.updateInterval = 0.1s
###Data for APPS fixing the MAP.
*.node[*].appl.offsetX = 0 # extra value for X axis
*.node[*].appl.offsetY = 0 # extra value for Y axis
*.node[*].appl.maxY = 200 #Tama#o Max. Y axis
### Data for APPS_CW. 
*.node[*].appl.timeT= 1#passing value of time T for VEhicles.
*.node[*].appl.appCW = true #use or not APPS_CW
*.node[*].appl.appMinCW = 10 #This is my APP CW window


################ Mobility parameters #####################
#It seems that I need these values by default, otherwise the TKENV keeps asking me these values.
*.node[*].mobility.x = 0
*.node[*].mobility.y = 0
*.node[*].mobility.z = 1.895 # vamos viendo si funciona con este valor

###############################
#Mobility Parameters: ROAD SIDE UNITS.....(VPA)
###############################
#Number of VPAs
scenario.numNodes = 1

scenario.VPA[0].Mobility.x = 100
scenario.VPA[0].Mobility.y = 100

scenario.VPA[1].Mobility.x = 190
scenario.VPA[1].Mobility.y = 100

scenario.VPA[2].Mobility.x = 280
scenario.VPA[2].Mobility.y = 102

scenario.VPA[3].Mobility.x = 103
scenario.VPA[3].Mobility.y = 100

scenario.VPA[4].Mobility.x = 100
scenario.VPA[4].Mobility.y = 104

scenario.VPA[5].Mobility.x = 100
scenario.VPA[5].Mobility.y = 100

scenario.VPA[6].Mobility.x = 100
scenario.VPA[6].Mobility.y = 101

scenario.VPA[7].Mobility.x = 100
scenario.VPA[7].Mobility.y = 102

scenario.VPA[8].Mobility.x = 103
scenario.VPA[8].Mobility.y = 100

scenario.VPA[9].Mobility.x = 100
scenario.VPA[9].Mobility.y = 104


